2024_89_CemigReconfigurationCases/1_SEsCemig/CAX01/CAX01SegmentosMT.dss
new line.SMT_106148 bus1=BMT120689482.1.2.3,bus2=BMT256760B.1.2.3,Phases=3,Linecode=CAB207_3_3_3,Length=0.014170000,Units=km
new line.SMT_1042867 bus1=BMT120689510.1.2.3,bus2=BMT2030364B.1.2.3,Phases=3,Linecode=CAB207_3_3_3,Length=0.081435000,Units=km
new line.SMT_1043028 bus1=BMT120689559.1.2.3,bus2=BMT2030504B.1.2.3,Phases=3,Linecode=CAB207_3_3_3,Length=0.140940000,Units=km
new line.SMT_1043070 bus1=BMT120689566.1.2.3,bus2=BMT2030539B.1.2.3,Phases=3,Linecode=CAB207_3_3_3,Length=0.114351000,Units=km
new line.SMT_1043112 bus1=BMT120689573.1.2.3,bus2=BMT2030560B.1.2.3,Phases=3,Linecode=CAB207_3_3_3,Length=0.070029000,Units=km
new line.SMT_1043490 bus1=BMT120689608.1.2.3,bus2=BMT2030791B.1.2.3,Phases=3,Linecode=CAB207_3_3_3,Length=0.602933000,Units=km
new line.SMT_1043518 bus1=BMT120689615.3,bus2=BMT120689622.3,Phases=1,Linecode=CAB203_3_1_1,Length=0.140569000,Units=km
new line.SMT_1043525 bus1=BMT120689615.1.2.3,bus2=BMT2030819B.1.2.3,Phases=3,Linecode=CAB207_3_3_3,Length=0.391360000,Units=km
new line.SMT_1043546 bus1=BMT120689629.3,bus2=BMT120689636.3,Phases=1,Linecode=CAB202_3_1_1,Length=0.237017000,Units=km
new line.SMT_1043553 bus1=BMT120689629.1.2.3,bus2=BMT2030840B.1.2.3,Phases=3,Linecode=CAB207_3_3_3,Length=0.444036000,Units=km
new line.SMT_1043567 bus1=BMT120689643.1.2.3,bus2=BMT2030854B.1.2.3,Phases=3,Linecode=CAB207_3_3_3,Length=0.458315000,Units=km
new line.SMT_1043574 bus1=BMT120689643.1.2.3,bus2=BMT120689657.1.2.3,Phases=3,Linecode=CAB203_3_3_3,Length=0.075694000,Units=km
new line.SMT_1043679 bus1=BMT120689664.1.2.3,bus2=BMT2030945B.1.2.3,Phases=3,Linecode=CAB207_3_3_3,Length=0.107071000,Units=km
new line.SMT_1043707 bus1=BMT120689671.1.2.3,bus2=BMT2030973B.1.2.3,Phases=3,Linecode=CAB207_3_3_3,Length=0.263076000,Units=km
new line.SMT_1043770 bus1=BMT120689678.1.2.3,bus2=BMT2031029B.1.2.3,Phases=3,Linecode=CAB207_3_3_3,Length=0.620100000,Units=km
new line.SMT_3147571 bus1=BMT120689692.1.2.3,bus2=BMT120689699.1.2.3,Phases=3,Linecode=CAB207_3_3_3,Length=0.076150000,Units=km
new line.SMT_1043833 bus1=BMT120689734.1.2.3,bus2=BMT2031085B.1.2.3,Phases=3,Linecode=CAB207_3_3_3,Length=0.359195000,Units=km
new line.SMT_1043882 bus1=BMT120689748.1.2.3,bus2=BMT169342306.1.2.3,Phases=3,Linecode=CAB207_3_3_3,Length=0.330799000,Units=km
new line.SMT_12524924 bus1=BMT120689748.1.2.3,bus2=BMT9132849B.1.2.3,Phases=3,Linecode=CAB202_3_3_3,Length=0.007236000,Units=km
new line.SMT_1043973 bus1=BMT120689776.1.2.3,bus2=BMT120689783.1.2.3,Phases=3,Linecode=CAB207_3_3_3,Length=0.152504000,Units=km
new line.SMT_6876855 bus1=BMT120689776.1.2.3,bus2=BMT7592080B.1.2.3,Phases=3,Linecode=CAB202_3_3_3,Length=0.005083000,Units=km
new line.SMT_1044008 bus1=BMT120689804.1.2.3,bus2=BMT2031204B.1.2.3,Phases=3,Linecode=CAB207_3_3_3,Length=0.192590000,Units=km
new line.SMT_1044050 bus1=BMT120689811.1.2.3,bus2=BMT2031246B.1.2.3,Phases=3,Linecode=CAB207_3_3_3,Length=0.083889000,Units=km
new line.SMT_111314 bus1=BMT120689867.1.2.3,bus2=BMT268149B.1.2.3,Phases=3,Linecode=CAB104_3_3_3,Length=0.044032000,Units=km
new line.SMT_111265 bus1=BMT120689874.1.2.3,bus2=BMT268142B.1.2.3,Phases=3,Linecode=CAB104_3_3_3,Length=0.031014000,Units=km
new line.SMT_111272 bus1=BMT120689874.1.2.3,bus2=BMT268149B.1.2.3,Phases=3,Linecode=CAB104_3_3_3,Length=0.043020000,Units=km
new line.SMT_111286 bus1=BMT120689881.1.2.3,bus2=BMT268142B.1.2.3,Phases=3,Linecode=CAB104_3_3_3,Length=0.031014000,Units=km
new line.SMT_111664 bus1=BMT120689951.1.2.3,bus2=BMT268863B.1.2.3,Phases=3,Linecode=CAB104_3_3_3,Length=0.039578000,Units=km
new line.SMT_113050 bus1=BMT120690252.1.2.3,bus2=BMT271600B.1.2.3,Phases=3,Linecode=CAB104_3_3_3,Length=0.024708000,Units=km
new line.SMT_112966 bus1=BMT120690266.1.2.3,bus2=BMT175223077.1.2.3,Phases=3,Linecode=CAB104_3_3_3,Length=0.029081000,Units=km
new line.SMT_2976407 bus1=BMT120690308.1.2.3,bus2=BMT269367B.1.2.3,Phases=3,Linecode=CAB103_3_3_3,Length=0.014148000,Units=km
new line.SMT_143507 bus1=BMT120690392.1.2.3,bus2=BMT343924B.1.2.3,Phases=3,Linecode=CABA06_3_3_3,Length=0.041019000,Units=km
new line.SMT_2976414 bus1=BMT120690406.1,bus2=BMT120690413.1,Phases=1,Linecode=CABA06_3_1_1,Length=0.035710000,Units=km
new line.SMT_2976421 bus1=BMT120690413.1,bus2=BMT4005533B.1,Phases=1,Linecode=CABA06_3_1_1,Length=0.028314000,Units=km
new line.SMT_2976428 bus1=BMT120690413.1,bus2=BMT4005540B.1,Phases=1,Linecode=CABA06_3_1_1,Length=0.031795000,Units=km
new line.SMT_2976400 bus1=BMT120690420.1,bus2=BMT4005554B.1,Phases=1,Linecode=CABA06_3_1_1,Length=0.042562000,Units=km
new line.SMT_112756 bus1=BMT120690504.1.2.3,bus2=BMT270802B.1.2.3,Phases=3,Linecode=CAB104_3_3_3,Length=0.033555000,Units=km
new line.SMT_112581 bus1=BMT120690532.1.2.3,bus2=BMT270830B.1.2.3,Phases=3,Linecode=CAB104_3_3_3,Length=0.023010000,Units=km
new line.SMT_112833 bus1=BMT120690567.1.2.3,bus2=BMT149884950.1.2.3,Phases=3,Linecode=CAB102_3_3_3,Length=0.037499000,Units=km
new line.SMT_112896 bus1=BMT120690679.1.2.3,bus2=BMT271376B.1.2.3,Phases=3,Linecode=CAB102_3_3_3,Length=0.032409000,Units=km
new line.SMT_112903 bus1=BMT120690679.1.2.3,bus2=BMT149884953.1.2.3,Phases=3,Linecode=CAB102_3_3_3,Length=0.030029000,Units=km
new line.SMT_3121559 bus1=BMT120690721.1.2.3,bus2=BMT120690728.1.2.3,Phases=3,Linecode=CABA06_3_3_3,Length=0.038141000,Units=km
new line.SMT_12446438 bus1=BMT120690728.1.2.3,bus2=BMT273238B.1.2.3,Phases=3,Linecode=CABA06_3_3_3,Length=0.033852000,Units=km
new line.SMT_142898 bus1=BMT120690735.1.2.3,bus2=BMT120690742.1.2.3,Phases=3,Linecode=CAB902_4_3_3,Length=0.015635000,Units=km
new line.SMT_7081493 bus1=BMT120691225.1,bus2=BMT120691239.1,Phases=1,Linecode=CAB202_3_1_1,Length=0.059842000,Units=km
new line.SMT_1047011 bus1=BMT120691309.1.2.3,bus2=BMT145356726.1.2.3,Phases=3,Linecode=CAB202_3_3_3,Length=0.051011000,Units=km
new line.SMT_1047018 bus1=BMT120691309.3,bus2=BMT120691330.3,Phases=1,Linecode=CAB202_3_1_1,Length=0.067109000,Units=km
new line.SMT_7081143 bus1=BMT120691344.2,bus2=BMT120691351.2,Phases=1,Linecode=CAB202_3_1_1,Length=0.102041000,Units=km
new line.SMT_1047382 bus1=BMT120691631.2,bus2=BMT172204890.2,Phases=1,Linecode=CAB202_3_1_1,Length=0.105991000,Units=km
new line.SMT_12774576 bus1=BMT120691799.2,bus2=BMT172204915.2,Phases=1,Linecode=CAB202_3_1_1,Length=0.253261000,Units=km
new line.SMT_1047522 bus1=BMT120692009.2,bus2=BMT120692016.2,Phases=1,Linecode=CAB202_3_1_1,Length=0.234312000,Units=km
new line.SMT_1047529 bus1=BMT120692009.2,bus2=BMT174046828.2,Phases=1,Linecode=CAB202_3_1_1,Length=0.244752000,Units=km
new line.SMT_1047536 bus1=BMT120692016.2,bus2=BMT2033248B.2,Phases=1,Linecode=CAB202_3_1_1,Length=0.282436000,Units=km
new line.SMT_1047592 bus1=BMT120692142.2,bus2=BMT174046852.2,Phases=1,Linecode=CAB202_3_1_1,Length=0.022386000,Units=km
new line.SMT_3161319 bus1=BMT120692226.2,bus2=BMT174046858.2,Phases=1,Linecode=CAB202_3_1_1,Length=0.107398000,Units=km
new line.SMT_2909424 bus1=BMT120692625.2,bus2=BMT120692632.2,Phases=1,Linecode=CAB202_3_1_1,Length=0.246108000,Units=km
new line.SMT_144312 bus1=BMT120692632.2,bus2=BMT3888878B.2,Phases=1,Linecode=CAB202_3_1_1,Length=0.019706000,Units=km
new line.SMT_1047620 bus1=BMT120692646.2,bus2=BMT120692653.2,Phases=1,Linecode=CAB202_3_1_1,Length=0.045018000,Units=km
new line.SMT_2199582 bus1=BMT120692653.2,bus2=BMT120692660.2,Phases=1,Linecode=CAB202_3_1_1,Length=0.035015000,Units=km
new line.SMT_2199589 bus1=BMT120692653.2,bus2=BMT120692667.2,Phases=1,Linecode=CAB103_3_1_1,Length=0.040328000,Units=km
new line.SMT_1047585 bus1=BMT120692674.2,bus2=BMT120692681.2,Phases=1,Linecode=CAB202_3_1_1,Length=0.091652000,Units=km
new line.SMT_2121287 bus1=BMT120692681.2,bus2=BMT120692688.2,Phases=1,Linecode=CAB103_3_1_1,Length=0.059203000,Units=km
new line.SMT_2121294 bus1=BMT120692681.2,bus2=BMT120692695.2,Phases=1,Linecode=CAB202_3_1_1,Length=0.180241000,Units=km
new line.SMT_2121301 bus1=BMT120692681.2,bus2=BMT2840208B.2,Phases=1,Linecode=CAB202_3_1_1,Length=0.086497000,Units=km
new line.SMT_2121308 bus1=BMT120692695.2,bus2=BMT120692709.2,Phases=1,Linecode=CAB202_3_1_1,Length=0.193113000,Units=km
new line.SMT_2121315 bus1=BMT120692695.2,bus2=BMT120692716.2,Phases=1,Linecode=CAB202_3_1_1,Length=0.131601000,Units=km
new line.SMT_1047543 bus1=BMT120692723.2,bus2=BMT120692730.2,Phases=1,Linecode=CAB202_3_1_1,Length=0.214910000,Units=km
new line.SMT_2049355 bus1=BMT120692730.2,bus2=BMT120692737.2,Phases=1,Linecode=CAB202_3_1_1,Length=0.105796000,Units=km
new line.SMT_1047515 bus1=BMT120692744.2,bus2=BMT120692751.2,Phases=1,Linecode=CAB202_3_1_1,Length=0.171163000,Units=km
new line.SMT_144291 bus1=BMT120692751.2,bus2=BMT3949239B.2,Phases=1,Linecode=CAB202_3_1_1,Length=0.133167000,Units=km
new line.SMT_2435181 bus1=BMT120692765.2,bus2=BMT120692772.2,Phases=1,Linecode=CAB202_3_1_1,Length=0.586152000,Units=km
new line.SMT_1047102 bus1=BMT120692772.2,bus2=BMT120692779.2,Phases=1,Linecode=CAB202_3_1_1,Length=0.104445000,Units=km
new line.SMT_1047109 bus1=BMT120692772.2,bus2=BMT3291386B.2,Phases=1,Linecode=CAB202_3_1_1,Length=0.368720000,Units=km
new line.SMT_1047116 bus1=BMT120692772.2,bus2=BMT3291638B.2,Phases=1,Linecode=CAB202_3_1_1,Length=0.049053000,Units=km
new line.SMT_1048026 bus1=BMT120692779.2,bus2=BMT120692842.2,Phases=1,Linecode=CAB202_3_1_1,Length=0.259720000,Units=km
new line.SMT_1048033 bus1=BMT120692779.2,bus2=BMT2034095B.2,Phases=1,Linecode=CAB202_3_1_1,Length=0.047191000,Units=km
new line.SMT_1048040 bus1=BMT120692779.2,bus2=BMT120692856.2,Phases=1,Linecode=CAB202_3_1_1,Length=0.049063000,Units=km
new line.SMT_1048047 bus1=BMT120692786.2,bus2=BMT120692800.2,Phases=1,Linecode=CAB202_3_1_1,Length=0.070740000,Units=km
new line.SMT_1048054 bus1=BMT120692786.2,bus2=BMT120692807.2,Phases=1,Linecode=CAB202_3_1_1,Length=0.200146000,Units=km
new line.SMT_1048061 bus1=BMT120692800.2,bus2=BMT120692821.2,Phases=1,Linecode=CAB202_3_1_1,Length=0.302325000,Units=km
new line.SMT_1048068 bus1=BMT120692800.2,bus2=BMT3097472B.2,Phases=1,Linecode=CAB202_3_1_1,Length=0.072764000,Units=km
new line.SMT_1048075 bus1=BMT120692800.2,bus2=BMT3291365B.2,Phases=1,Linecode=CAB202_3_1_1,Length=0.050190000,Units=km
new line.SMT_1048082 bus1=BMT120692807.2,bus2=BMT2544311.2,Phases=1,Linecode=CAB202_3_1_1,Length=0.228736000,Units=km
new line.SMT_1048096 bus1=BMT120692807.2,bus2=BMT3913623B.2,Phases=1,Linecode=CAB202_3_1_1,Length=0.013046000,Units=km
new line.SMT_111237 bus1=BMT120692842.2,bus2=BMT3518298B.2,Phases=1,Linecode=CAB202_3_1_1,Length=0.088093000,Units=km
new line.SMT_2627289 bus1=BMT120692856.2,bus2=BMT120692863.2,Phases=1,Linecode=CAB202_3_1_1,Length=0.034801000,Units=km
new line.SMT_2627296 bus1=BMT120692856.2,bus2=BMT120692870.2,Phases=1,Linecode=CAB103_3_1_1,Length=0.056672000,Units=km
new line.SMT_1049083 bus1=BMT120692863.2,bus2=BMT120692877.2,Phases=1,Linecode=CAB103_3_1_1,Length=0.075030000,Units=km
new line.SMT_1049090 bus1=BMT120692863.2,bus2=BMT120692884.2,Phases=1,Linecode=CAB202_3_1_1,Length=0.130148000,Units=km
new line.SMT_1048089 bus1=BMT120692898.2,bus2=BMT3290938B.2,Phases=1,Linecode=CAB202_3_1_1,Length=0.059801000,Units=km
new line.SMT_1048110 bus1=BMT120692905.2,bus2=BMT120692912.2,Phases=1,Linecode=CAB202_3_1_1,Length=0.215497000,Units=km
new line.SMT_1048117 bus1=BMT120692905.2,bus2=BMT120692919.2,Phases=1,Linecode=CAB202_3_1_1,Length=0.090193000,Units=km
new line.SMT_1048124 bus1=BMT120692905.2,bus2=BMT2033577B.2,Phases=1,Linecode=CAB202_3_1_1,Length=0.474590000,Units=km
new line.SMT_1047074 bus1=BMT120693003.3,bus2=BMT2033031B.3,Phases=1,Linecode=CAB202_3_1_1,Length=0.438467000,Units=km
new line.SMT_7080485 bus1=BMT120693045.2,bus2=BMT120693052.2,Phases=1,Linecode=CAB202_3_1_1,Length=0.010775000,Units=km
new line.SMT_7080492 bus1=BMT120693052.2,bus2=BMT120693059.2,Phases=1,Linecode=CAB202_3_1_1,Length=0.177204000,Units=km
new line.SMT_7080576 bus1=BMT120693052.2,bus2=BMT3292100B.2,Phases=1,Linecode=CAB202_3_1_1,Length=0.013607000,Units=km
new line.SMT_1046934 bus1=BMT120693087.2,bus2=BMT3245704B.2,Phases=1,Linecode=CAB202_3_1_1,Length=0.136047000,Units=km
new line.SMT_1049237 bus1=BMT120693227.1.2.3,bus2=BMT165421721.1.2.3,Phases=3,Linecode=CAB202_3_3_3,Length=0.175070000,Units=km
new line.SMT_1049580 bus1=BMT120693724.3,bus2=BMT3259844B.3,Phases=1,Linecode=CAB202_3_1_1,Length=0.089135000,Units=km
new line.SMT_1049587 bus1=BMT120693724.1.2.3,bus2=BMT175510220.1.2.3,Phases=3,Linecode=CAB202_3_3_3,Length=0.080150000,Units=km
new line.SMT_1050112 bus1=BMT120693780.1.2.3,bus2=BMT175510224.1.2.3,Phases=3,Linecode=CAB202_3_3_3,Length=0.074360000,Units=km
new line.SMT_1050140 bus1=BMT120693794.3,bus2=BMT120693808.3,Phases=1,Linecode=CAB202_3_1_1,Length=0.100293000,Units=km
new line.SMT_1050154 bus1=BMT120693794.3,bus2=BMT3236443B.3,Phases=1,Linecode=CAB202_3_1_1,Length=0.124754000,Units=km
new line.SMT_1050574 bus1=BMT120694018.3,bus2=BMT172119311.3,Phases=1,Linecode=CAB202_3_1_1,Length=0.121872000,Units=km
new line.SMT_1050700 bus1=BMT120694123.3,bus2=BMT2034998B.3,Phases=1,Linecode=CAB202_3_1_1,Length=0.223696000,Units=km
new line.SMT_1050735 bus1=BMT120694151.3,bus2=BMT3214498B.3,Phases=1,Linecode=CAB202_3_1_1,Length=0.105037000,Units=km
new line.SMT_1050791 bus1=BMT120694165.3,bus2=BMT173700642.3,Phases=1,Linecode=CAB202_3_1_1,Length=0.063224000,Units=km
new line.SMT_1050364 bus1=BMT120694620.3,bus2=BMT161577511.3,Phases=1,Linecode=CAB202_3_1_1,Length=0.396178000,Units=km
new line.SMT_2143162 bus1=BMT120695082.2,bus2=BMT172805284.2,Phases=1,Linecode=CAB202_3_1_1,Length=0.035072000,Units=km
new line.SMT_1049874 bus1=BMT120695348.2,bus2=BMT172805325.2,Phases=1,Linecode=CAB202_3_1_1,Length=0.231231000,Units=km
new line.SMT_2143169 bus1=BMT120695586.2,bus2=BMT120695593.2,Phases=1,Linecode=CAB202_3_1_1,Length=0.085527000,Units=km
new line.SMT_2143155 bus1=BMT120695593.2,bus2=BMT3721921B.2,Phases=1,Linecode=CAB202_3_1_1,Length=0.044796000,Units=km
new line.SMT_112763 bus1=BMT120695663.1.2.3,bus2=BMT271138B.1.2.3,Phases=3,Linecode=CABA06_3_3_3,Length=0.028243000,Units=km
new line.SMT_112490 bus1=BMT120695698.1.2.3,bus2=BMT271488B.1.2.3,Phases=3,Linecode=CAB104_3_3_3,Length=0.028031000,Units=km
new line.SMT_113274 bus1=BMT120695754.1.2.3,bus2=BMT155599640.1.2.3,Phases=3,Linecode=CAB104_3_3_3,Length=0.030541000,Units=km
new line.SMT_113652 bus1=BMT120695824.1.2.3,bus2=BMT151975845.1.2.3,Phases=3,Linecode=CAB104_3_3_3,Length=0.036374000,Units=km
new line.SMT_113722 bus1=BMT120695880.1.2.3,bus2=BMT170115040.1.2.3,Phases=3,Linecode=CAB103_3_3_3,Length=0.033014000,Units=km
new line.SMT_1046535 bus1=BMT120695915.1.2.3,bus2=BMT170115044.1.2.3,Phases=3,Linecode=CAB103_3_3_3,Length=0.033119000,Units=km
new line.SMT_1044904 bus1=BMT120696083.1.2.3,bus2=BMT3298498B.1.2.3,Phases=3,Linecode=CAB202_3_3_3,Length=0.215847000,Units=km
new line.SMT_1044911 bus1=BMT120696083.3,bus2=BMT3308137B.3,Phases=1,Linecode=CAB202_3_1_1,Length=0.008948000,Units=km
new line.SMT_1044946 bus1=BMT120696111.1.2.3,bus2=BMT174042527.1.2.3,Phases=3,Linecode=CAB202_3_3_3,Length=0.094975000,Units=km
new line.SMT_1044967 bus1=BMT120696132.1.2.3,bus2=BMT120696146.1.2.3,Phases=3,Linecode=CAB202_3_3_3,Length=0.060852000,Units=km
new line.SMT_1044974 bus1=BMT120696132.1.2.3,bus2=BMT120696153.1.2.3,Phases=3,Linecode=CAB202_3_3_3,Length=0.009004000,Units=km
new line.SMT_1045072 bus1=BMT120696209.3,bus2=BMT175167543.3,Phases=1,Linecode=CAB202_3_1_1,Length=0.036108000,Units=km
new line.SMT_1045079 bus1=BMT120696209.1.2.3,bus2=BMT2031911B.1.2.3,Phases=3,Linecode=CAB202_3_3_3,Length=0.502005000,Units=km
new line.SMT_1045107 bus1=BMT120696230.1.2.3,bus2=BMT120696237.1.2.3,Phases=3,Linecode=CAB202_3_3_3,Length=0.580885000,Units=km
new line.SMT_1045114 bus1=BMT120696230.3,bus2=BMT3299044B.3,Phases=1,Linecode=CAB202_3_1_1,Length=0.015157000,Units=km
new line.SMT_1045135 bus1=BMT120696237.1.2.3,bus2=BMT175167545.1.2.3,Phases=3,Linecode=CAB202_3_3_3,Length=0.142168000,Units=km
new line.SMT_2144044 bus1=BMT120696286.1,bus2=BMT160156161.1,Phases=1,Linecode=CAB103_3_1_1,Length=0.019113000,Units=km
new line.SMT_2144051 bus1=BMT120696307.1,bus2=BMT120696314.1,Phases=1,Linecode=CAB202_3_1_1,Length=0.072036000,Units=km
new line.SMT_2144058 bus1=BMT120696314.1,bus2=BMT120696321.1,Phases=1,Linecode=CAB202_3_1_1,Length=0.080088000,Units=km
new line.SMT_2144065 bus1=BMT120696314.1,bus2=BMT3480456B.1,Phases=1,Linecode=CAB202_3_1_1,Length=0.126089000,Units=km
new line.SMT_2595439 bus1=BMT120696328.1,bus2=BMT3480470B.1,Phases=1,Linecode=CAB202_3_1_1,Length=0.317577000,Units=km
new line.SMT_2595446 bus1=BMT120696328.1,bus2=BMT3866002B.1,Phases=1,Linecode=CAB202_3_1_1,Length=0.129391000,Units=km
new line.SMT_2441796 bus1=BMT120696405.3,bus2=BMT2031897B.3,Phases=1,Linecode=CAB202_3_1_1,Length=0.067534000,Units=km
new line.SMT_1045156 bus1=BMT120696412.3,bus2=BMT120696419.3,Phases=1,Linecode=CAB202_3_1_1,Length=0.072912000,Units=km
new line.SMT_1045163 bus1=BMT120696412.3,bus2=BMT120696426.3,Phases=1,Linecode=CAB202_3_1_1,Length=0.294160000,Units=km
new line.SMT_1044995 bus1=BMT120696447.1.2.3,bus2=BMT170416192.1.2.3,Phases=3,Linecode=CAB202_3_3_3,Length=0.355291000,Units=km
new line.SMT_1045205 bus1=BMT120696482.1.2.3,bus2=BMT120696496.1.2.3,Phases=3,Linecode=CAB202_3_3_3,Length=0.104162000,Units=km
new line.SMT_1045212 bus1=BMT120696482.3,bus2=BMT120696503.3,Phases=1,Linecode=CAB202_3_1_1,Length=0.010004000,Units=km
new line.SMT_2270569 bus1=BMT120696496.1.2.3,bus2=BMT170416196.1.2.3,Phases=3,Linecode=CAB202_3_3_3,Length=0.096169000,Units=km
new line.SMT_1045240 bus1=BMT120696524.1,bus2=BMT120696531.1,Phases=1,Linecode=CAB202_3_1_1,Length=0.009904000,Units=km
new line.SMT_1045254 bus1=BMT120696524.1.2.3,bus2=BMT2032009B.1.2.3,Phases=3,Linecode=CAB202_3_3_3,Length=0.130759000,Units=km
new line.SMT_1045289 bus1=BMT120696538.1.2.3,bus2=BMT120696545.1.2.3,Phases=3,Linecode=CAB202_3_3_3,Length=0.372225000,Units=km
new line.SMT_1045310 bus1=BMT120696545.1.2.3,bus2=BMT3305309B.1.2.3,Phases=3,Linecode=CAB202_3_3_3,Length=0.318016000,Units=km
new line.SMT_1045387 bus1=BMT120696573.1.2.3,bus2=BMT170416203.1.2.3,Phases=3,Linecode=CAB203_3_3_3,Length=0.337022000,Units=km
new line.SMT_1045366 bus1=BMT120696587.1,bus2=BMT170416202.1,Phases=1,Linecode=CAB202_3_1_1,Length=0.116687000,Units=km
new line.SMT_1045261 bus1=BMT120696622.1,bus2=BMT120696629.1,Phases=1,Linecode=CAB103_3_1_1,Length=0.032540000,Units=km
new line.SMT_2933756 bus1=BMT120696699.1.2.3,bus2=BMT176301717.1.2.3,Phases=3,Linecode=CAB202_3_3_3,Length=0.160534000,Units=km
new line.SMT_2144191 bus1=BMT120696762.1,bus2=BMT176301727.1,Phases=1,Linecode=CAB103_3_1_1,Length=0.021874000,Units=km
new line.SMT_2112313 bus1=BMT120696776.1.2.3,bus2=BMT2825844B.1.2.3,Phases=3,Linecode=CAB202_3_3_3,Length=0.223527000,Units=km
new line.SMT_984123 bus1=BMT120696839.1.2.3,bus2=BMT3240832B.1.2.3,Phases=3,Linecode=CAB202_3_3_3,Length=0.111847000,Units=km
new line.SMT_984130 bus1=BMT120696846.1.2.3,bus2=BMT3240944B.1.2.3,Phases=3,Linecode=CAB202_3_3_3,Length=0.085410000,Units=km
new line.SMT_984179 bus1=BMT120696853.1.2.3,bus2=BMT120696860.1.2.3,Phases=3,Linecode=CAB202_3_3_3,Length=0.141211000,Units=km
new line.SMT_984193 bus1=BMT120696860.1.2.3,bus2=BMT120696867.1.2.3,Phases=3,Linecode=CAB103_3_3_3,Length=0.056102000,Units=km
new line.SMT_984186 bus1=BMT120696874.1,bus2=BMT1990184B.1,Phases=1,Linecode=CAB202_3_1_1,Length=0.182554000,Units=km
new line.SMT_984242 bus1=BMT120696888.1.2.3,bus2=BMT1990226B.1.2.3,Phases=3,Linecode=CAB202_3_3_3,Length=0.109702000,Units=km
new line.SMT_984277 bus1=BMT120696895.1.2.3,bus2=BMT120696902.1.2.3,Phases=3,Linecode=CAB103_3_3_3,Length=0.036070000,Units=km
new line.SMT_2144184 bus1=BMT120696909.1.2.3,bus2=BMT120696916.1.2.3,Phases=3,Linecode=CAB203_3_3_3,Length=0.099509000,Units=km
new line.SMT_984319 bus1=BMT120696916.1.2.3,bus2=BMT3695335B.1.2.3,Phases=3,Linecode=CAB202_3_3_3,Length=0.009914000,Units=km
new line.SMT_984333 bus1=BMT120696916.2,bus2=BMT3695391B.2,Phases=1,Linecode=CAB203_3_1_1,Length=0.129688000,Units=km
new line.SMT_984340 bus1=BMT120696937.2,bus2=BMT3695412B.2,Phases=1,Linecode=CAB203_3_1_1,Length=0.300167000,Units=km
new line.SMT_2933763 bus1=BMT120696979.1,bus2=BMT3928610B.1,Phases=1,Linecode=CAB202_3_1_1,Length=0.113458000,Units=km
new line.SMT_1045541 bus1=BMT120697154.3,bus2=BMT176771110.3,Phases=1,Linecode=CAB203_3_1_1,Length=0.086106000,Units=km
new line.SMT_1045625 bus1=BMT120697371.3,bus2=BMT175829065.3,Phases=1,Linecode=CAB203_3_1_1,Length=0.091388000,Units=km
new line.SMT_1045716 bus1=BMT120697427.3,bus2=BMT2032268B.3,Phases=1,Linecode=CAB202_3_1_1,Length=0.061319000,Units=km
new line.SMT_1045730 bus1=BMT120697427.3,bus2=BMT3245837B.3,Phases=1,Linecode=CAB202_3_1_1,Length=0.100180000,Units=km
new line.SMT_2417688 bus1=BMT120697644.3,bus2=BMT120697679.3,Phases=1,Linecode=CAB202_3_1_1,Length=0.111171000,Units=km
new line.SMT_3149853 bus1=BMT120697644.3,bus2=BMT4254901B.3,Phases=1,Linecode=CAB202_3_1_1,Length=0.072323000,Units=km
new line.SMT_1046206 bus1=BMT120698008.3,bus2=BMT3273816B.3,Phases=1,Linecode=CAB202_3_1_1,Length=0.024063000,Units=km
new line.SMT_12632505 bus1=BMT120698246.3,bus2=BMT175307353.3,Phases=1,Linecode=CAB202_3_1_1,Length=0.059235000,Units=km
new line.SMT_1045282 bus1=BMT120698407.1,bus2=BMT2032023B.1,Phases=1,Linecode=CAB202_3_1_1,Length=0.075559000,Units=km
new line.SMT_3027745 bus1=BMT120698498.3,bus2=BMT120698505.3,Phases=1,Linecode=CAB202_3_1_1,Length=0.210323000,Units=km
new line.SMT_1045198 bus1=BMT120698512.1,bus2=BMT2031974B.1,Phases=1,Linecode=CAB202_3_1_1,Length=0.193096000,Units=km
new line.SMT_1044988 bus1=BMT120698526.1.2.3,bus2=BMT120698533.1.2.3,Phases=3,Linecode=CAB103_3_3_3,Length=0.020345000,Units=km
new line.SMT_1044960 bus1=BMT120698540.2,bus2=BMT2031848B.2,Phases=1,Linecode=CAB202_3_1_1,Length=0.327238000,Units=km
new line.SMT_1046507 bus1=BMT120698547.2,bus2=BMT120698554.2,Phases=1,Linecode=CAB202_3_1_1,Length=0.089070000,Units=km
new line.SMT_1046514 bus1=BMT120698547.2,bus2=BMT3298715B.2,Phases=1,Linecode=CAB202_3_1_1,Length=0.069656000,Units=km
new line.SMT_1044939 bus1=BMT120698568.1,bus2=BMT2031834B.1,Phases=1,Linecode=CAB202_3_1_1,Length=0.099287000,Units=km
new line.SMT_2143988 bus1=BMT120698575.1,bus2=BMT120698582.1,Phases=1,Linecode=CAB202_3_1_1,Length=0.229488000,Units=km
new line.SMT_2143995 bus1=BMT120698575.1,bus2=BMT3298582B.1,Phases=1,Linecode=CAB202_3_1_1,Length=0.030029000,Units=km
new line.SMT_2144002 bus1=BMT120698582.1,bus2=BMT120698596.1,Phases=1,Linecode=CAB202_3_1_1,Length=0.200266000,Units=km
new line.SMT_5672512 bus1=BMT120698582.1,bus2=BMT6664237B.1,Phases=1,Linecode=CAB202_3_1_1,Length=0.039559000,Units=km
new line.SMT_1044897 bus1=BMT120698610.3,bus2=BMT120698617.3,Phases=1,Linecode=CAB202_3_1_1,Length=0.292886000,Units=km
new line.SMT_1044918 bus1=BMT120698617.3,bus2=BMT120698624.3,Phases=1,Linecode=CAB202_3_1_1,Length=0.100210000,Units=km
new line.SMT_1044925 bus1=BMT120698617.3,bus2=BMT3523723B.3,Phases=1,Linecode=CAB103_3_1_1,Length=0.038068000,Units=km
new line.SMT_1046521 bus1=BMT120698624.3,bus2=BMT120698638.3,Phases=1,Linecode=CAB202_3_1_1,Length=0.102021000,Units=km
new line.SMT_114226 bus1=BMT120698799.1,bus2=BMT274120B.1,Phases=1,Linecode=CAB103_3_1_1,Length=0.030426000,Units=km
new line.SMT_113267 bus1=BMT120698932.1.2.3,bus2=BMT271656B.1.2.3,Phases=3,Linecode=CAB103_3_3_3,Length=0.026431000,Units=km
new line.SMT_3176180 bus1=BMT120698946.1.2.3,bus2=BMT120698953.1.2.3,Phases=3,Linecode=CAB902_4_3_3,Length=0.021033000,Units=km
new line.SMT_112483 bus1=BMT120698960.1.2.3,bus2=BMT120698967.1.2.3,Phases=3,Linecode=CAB102_3_3_3,Length=0.009904000,Units=km
new line.SMT_112700 bus1=BMT120699058.1.2.3,bus2=BMT271082B.1.2.3,Phases=3,Linecode=CAB102_3_3_3,Length=0.029711000,Units=km
new line.SMT_1044274 bus1=BMT120699198.2,bus2=BMT3332161B.2,Phases=1,Linecode=CAB202_3_1_1,Length=0.075480000,Units=km
new line.SMT_1044358 bus1=BMT120699268.2,bus2=BMT167652865.2,Phases=1,Linecode=CAB202_3_1_1,Length=0.078134000,Units=km
new line.SMT_1044386 bus1=BMT120699289.2,bus2=BMT167652869.2,Phases=1,Linecode=CAB202_3_1_1,Length=0.397996000,Units=km
new line.SMT_1044533 bus1=BMT120699625.2,bus2=BMT2031568B.2,Phases=1,Linecode=CAB202_3_1_1,Length=0.052909000,Units=km
new line.SMT_112707 bus1=BMT120699891.1.2.3,bus2=BMT120699898.1.2.3,Phases=3,Linecode=CABA06_3_3_3,Length=0.041359000,Units=km
new line.SMT_1989393 bus1=BMT120699898.1.2.3,bus2=BMT120699905.1.2.3,Phases=3,Linecode=CABA06_3_3_3,Length=0.034670000,Units=km
new line.SMT_1989400 bus1=BMT120699898.1.2.3,bus2=BMT2660028B.1.2.3,Phases=3,Linecode=CABA06_3_3_3,Length=0.030494000,Units=km
...
