2024_89_CemigReconfigurationCases/1_SEsCemig/CAX01/CAX01ChavesMT.dss
new line.CTR105868 bus1=BMT120725896.1.2.3,bus2=BMT120728521.1.2.3,Phases=3,LineCode=tieSwitch,Length=0.001,Units=km,switch=T !numEQ 15727
new line.CTR105875 bus1=BMT120725966.1.2.3,bus2=BMT120725980.1.2.3,Phases=3,LineCode=tieSwitch,Length=0.001,Units=km,switch=T !numEQ 72471
new line.CTR105896 bus1=BMT120726526.1.2.3,bus2=BMT120726533.1.2.3,Phases=3,LineCode=tieSwitch,Length=0.001,Units=km,switch=T !numEQ 91327
new line.CTR105910 bus1=BMT120728367.1.2.3,bus2=BMT150923778.1.2.3,Phases=3,LineCode=tieSwitch,Length=0.001,Units=km,switch=T !numEQ 91331
new line.CTR105917 bus1=BMT120727912.1.2.3,bus2=BMT151455011.1.2.3,Phases=3,LineCode=tieSwitch,Length=0.001,Units=km,switch=T !numEQ 91333
new line.CTR105931 bus1=BMT120726687.1.2.3,bus2=BMT160541595.1.2.3,Phases=3,LineCode=tieSwitch,Length=0.001,Units=km,switch=T !numEQ 74502
new line.CTR105938 bus1=BMT120726757.1.2.3,bus2=BMT120726778.1.2.3,Phases=3,LineCode=tieSwitch,Length=0.001,Units=km,switch=T !numEQ 91295
new line.CTR105945 bus1=BMT120726624.1.2.3,bus2=BMT150343930.1.2.3,Phases=3,LineCode=tieSwitch,Length=0.001,Units=km,switch=T !numEQ 73708
new line.CTR105959 bus1=BMT120726225.1.2.3,bus2=BMT175170110.1.2.3,Phases=3,LineCode=tieSwitch,Length=0.001,Units=km,switch=T !numEQ 85731
new line.CTR105973 bus1=BMT149337754.1.2.3,bus2=BMT120728822.1.2.3,Phases=3,LineCode=tieSwitch,Length=0.001,Units=km,switch=T !numEQ 72630
new line.CTR105980 bus1=BMT120728850.1.2.3,bus2=BMT146726108.1.2.3,Phases=3,LineCode=tieSwitch,Length=0.001,Units=km,switch=T !numEQ 91463
new line.CTR105987 bus1=BMT120728766.1.2.3,bus2=BMT136368572.1.2.3,Phases=3,LineCode=tieSwitch,Length=0.001,Units=km,switch=T !numEQ 91343
new line.CTR105994 bus1=BMT120728724.1.2.3,bus2=BMT120726085.1.2.3,Phases=3,LineCode=tieSwitch,Length=0.001,Units=km,switch=T !numEQ 72940
open line.CTR105994 term=1
new line.CTR106001 bus1=BMT170189569.1.2.3,bus2=BMT145446326.1.2.3,Phases=3,LineCode=tieSwitch,Length=0.001,Units=km,switch=T !numEQ 85585
new line.CTR106008 bus1=BMT120717678.1,bus2=BMT120725728.1,Phases=1,LineCode=tieSwitch1,Length=0.001,Units=km,switch=T !numEQ 72480
new line.CTR106015 bus1=BMT120717797.1.2.3,bus2=BMT120717811.1.2.3,Phases=3,LineCode=tieSwitch,Length=0.001,Units=km,switch=T !numEQ 85383
new line.CTR106022 bus1=BMT120717818.1.2.3,bus2=BMT120725602.1.2.3,Phases=3,LineCode=tieSwitch,Length=0.001,Units=km,switch=T !numEQ 84812
new line.CTR106029 bus1=BMT120717832.1.2.3,bus2=BMT145923488.1.2.3,Phases=3,LineCode=tieSwitch,Length=0.001,Units=km,switch=T !numEQ 72484
new line.CTR106036 bus1=BMT120719071.2,bus2=BMT120723432.2,Phases=1,LineCode=tieSwitch1,Length=0.001,Units=km,switch=T !numEQ 73133
new line.CTR106043 bus1=BMT120719092.1,bus2=BMT120723369.1,Phases=1,LineCode=tieSwitch1,Length=0.001,Units=km,switch=T !numEQ 73135
new line.CTR106057 bus1=BMT120718007.1.2.3,bus2=BMT120718049.1.2.3,Phases=3,LineCode=tieSwitch,Length=0.001,Units=km,switch=T !numEQ 72495
new line.CTR106078 bus1=BMT132497803.1.2.3,bus2=BMT120718133.1.2.3,Phases=3,LineCode=tieSwitch,Length=0.001,Units=km,switch=T !numEQ 84726
new line.CTR106085 bus1=BMT120724930.1.2.3,bus2=BMT175458866.1.2.3,Phases=3,LineCode=tieSwitch,Length=0.001,Units=km,switch=T !numEQ 288392
new line.CTR106113 bus1=BMT120723908.2,bus2=BMT120723999.2,Phases=1,LineCode=tieSwitch1,Length=0.001,Units=km,switch=T !numEQ 15276
new line.CTR106155 bus1=BMT120718931.1.2.3,bus2=BMT120718952.1.2.3,Phases=3,LineCode=tieSwitch,Length=0.001,Units=km,switch=T !numEQ 73247
new line.CTR106218 bus1=BMT120719512.3,bus2=BMT120721430.3,Phases=1,LineCode=tieSwitch1,Length=0.001,Units=km,switch=T !numEQ 73331
new line.CTR106225 bus1=BMT120720226.2,bus2=BMT120720835.2,Phases=1,LineCode=tieSwitch1,Length=0.001,Units=km,switch=T !numEQ 73011
new line.CTR106232 bus1=BMT142253276.2,bus2=BMT146718772.2,Phases=1,LineCode=tieSwitch1,Length=0.001,Units=km,switch=T !numEQ 73333
new line.CTR106246 bus1=BMT120718497.2,bus2=BMT120718504.2,Phases=1,LineCode=tieSwitch1,Length=0.001,Units=km,switch=T !numEQ 85437
new line.CTR106260 bus1=BMT120717944.1.2.3,bus2=BMT120725266.1.2.3,Phases=3,LineCode=tieSwitch,Length=0.001,Units=km,switch=T !numEQ 84959
new line.CTR106281 bus1=BMT120725532.1.2.3,bus2=BMT120725553.1.2.3,Phases=3,LineCode=tieSwitch,Length=0.001,Units=km,switch=T !numEQ 73334
new line.CTR106288 bus1=BMT120717804.1.2.3,bus2=BMT176461107.1.2.3,Phases=3,LineCode=tieSwitch,Length=0.001,Units=km,switch=T !numEQ 72482
new line.CTR106309 bus1=BMT120703482.1.2.3,bus2=BMT175813660.1.2.3,Phases=3,LineCode=tieSwitch,Length=0.001,Units=km,switch=T !numEQ 85716
new line.CTR106316 bus1=BMT120702768.1.2.3,bus2=BMT167158289.1.2.3,Phases=3,LineCode=tieSwitch,Length=0.001,Units=km,switch=T !numEQ 72541
new line.CTR106323 bus1=BMT120705246.1.2.3,bus2=BMT172696636.1.2.3,Phases=3,LineCode=tieSwitch,Length=0.001,Units=km,switch=T !numEQ 74259
new line.CTR106330 bus1=BMT120703055.1.2.3,bus2=BMT120703118.1.2.3,Phases=3,LineCode=tieSwitch,Length=0.001,Units=km,switch=T !numEQ 15728
new line.CTR106337 bus1=BMT120703146.3,bus2=BMT120707080.3,Phases=1,LineCode=tieSwitch1,Length=0.001,Units=km,switch=T !numEQ 72548
new line.CTR106344 bus1=BMT120703202.3,bus2=BMT120707010.3,Phases=1,LineCode=tieSwitch1,Length=0.001,Units=km,switch=T !numEQ 74265
new line.CTR106358 bus1=BMT154044069.1.2.3,bus2=BMT163225388.1.2.3,Phases=3,LineCode=tieSwitch,Length=0.001,Units=km,switch=T !numEQ 15267
new line.CTR106365 bus1=BMT120703391.1.2.3,bus2=BMT171888800.1.2.3,Phases=3,LineCode=tieSwitch,Length=0.001,Units=km,switch=T !numEQ 85065
new line.CTR106372 bus1=BMT120705141.1,bus2=BMT120706926.1,Phases=1,LineCode=tieSwitch1,Length=0.001,Units=km,switch=T !numEQ 74239
new line.CTR106379 bus1=BMT153130242.1.2.3,bus2=BMT160831284.1.2.3,Phases=3,LineCode=tieSwitch,Length=0.001,Units=km,switch=T !numEQ 74240
new line.CTR106386 bus1=BMT120705239.1.2.3,bus2=BMT172525805.1.2.3,Phases=3,LineCode=tieSwitch,Length=0.001,Units=km,switch=T !numEQ 74257
new line.CTR106393 bus1=BMT120705379.2,bus2=BMT120705834.2,Phases=1,LineCode=tieSwitch1,Length=0.001,Units=km,switch=T !numEQ 74251
new line.CTR106400 bus1=BMT128857488.1,bus2=BMT160921071.1,Phases=1,LineCode=tieSwitch1,Length=0.001,Units=km,switch=T !numEQ 291188
new line.CTR106414 bus1=BMT120703272.2,bus2=BMT120703300.2,Phases=1,LineCode=tieSwitch1,Length=0.001,Units=km,switch=T !numEQ 74262
new line.CTR106421 bus1=BMT120708396.3,bus2=BMT120710363.3,Phases=1,LineCode=tieSwitch1,Length=0.001,Units=km,switch=T !numEQ 72531
new line.CTR106428 bus1=BMT120708452.1.2.3,bus2=BMT176677261.1.2.3,Phases=3,LineCode=tieSwitch,Length=0.001,Units=km,switch=T !numEQ 72532
new line.CTR106435 bus1=BMT120708788.3,bus2=BMT172418112.3,Phases=1,LineCode=tieSwitch1,Length=0.001,Units=km,switch=T !numEQ 73311
new line.CTR106442 bus1=BMT120710251.3,bus2=BMT155909629.3,Phases=1,LineCode=tieSwitch1,Length=0.001,Units=km,switch=T !numEQ 15269
new line.CTR106456 bus1=BMT120729298.1.2.3,bus2=BMT153553710.1.2.3,Phases=3,LineCode=tieSwitch,Length=0.001,Units=km,switch=T !numEQ 91356
new line.CTR106463 bus1=BMT165589268.1.2.3,bus2=BMT166723022.1.2.3,Phases=3,LineCode=tieSwitch,Length=0.001,Units=km,switch=T !numEQ 72672
new line.CTR106470 bus1=BMT120729333.1.2.3,bus2=BMT120741702.1.2.3,Phases=3,LineCode=tieSwitch,Length=0.001,Units=km,switch=T !numEQ 15330
new line.CTR106477 bus1=BMT120729536.1.2.3,bus2=BMT120730271.1.2.3,Phases=3,LineCode=tieSwitch,Length=0.001,Units=km,switch=T !numEQ 72640
new line.CTR106484 bus1=BMT148612319.3,bus2=BMT120729606.3,Phases=1,LineCode=tieSwitch1,Length=0.001,Units=km,switch=T !numEQ 73028
new line.CTR106498 bus1=BMT120730369.3,bus2=BMT156866907.3,Phases=1,LineCode=tieSwitch1,Length=0.001,Units=km,switch=T !numEQ 73409
new line.CTR106505 bus1=BMT120729529.1.2.3,bus2=BMT148612312.1.2.3,Phases=3,LineCode=tieSwitch,Length=0.001,Units=km,switch=T !numEQ 72641
new line.CTR106512 bus1=BMT120729697.2,bus2=BMT120730131.2,Phases=1,LineCode=tieSwitch1,Length=0.001,Units=km,switch=T !numEQ 73110
new line.CTR106519 bus1=BMT120729830.1,bus2=BMT120729970.1,Phases=1,LineCode=tieSwitch1,Length=0.001,Units=km,switch=T !numEQ 73038
new line.CTR106526 bus1=BMT120729886.3,bus2=BMT120729935.3,Phases=1,LineCode=tieSwitch1,Length=0.001,Units=km,switch=T !numEQ 72653
new line.CTR106533 bus1=BMT172637607.1.2.3,bus2=BMT2541098.1.2.3,Phases=3,LineCode=tieSwitch,Length=0.001,Units=km,switch=T !numEQ 72658
open line.CTR106533 term=1
new line.CTR106540 bus1=BMT120730642.2,bus2=BMT120741639.2,Phases=1,LineCode=tieSwitch1,Length=0.001,Units=km,switch=T !numEQ 73067
new line.CTR106547 bus1=BMT120730656.2,bus2=BMT120741625.2,Phases=1,LineCode=tieSwitch1,Length=0.001,Units=km,switch=T !numEQ 72643
new line.CTR106554 bus1=BMT120730677.1,bus2=BMT163072383.1,Phases=1,LineCode=tieSwitch1,Length=0.001,Units=km,switch=T !numEQ 15297
new line.CTR106561 bus1=BMT120730684.1,bus2=BMT120737810.1,Phases=1,LineCode=tieSwitch1,Length=0.001,Units=km,switch=T !numEQ 72666
new line.CTR106568 bus1=BMT120730705.2,bus2=BMT120737768.2,Phases=1,LineCode=tieSwitch1,Length=0.001,Units=km,switch=T !numEQ 72667
new line.CTR106575 bus1=BMT120730740.3,bus2=BMT120737754.3,Phases=1,LineCode=tieSwitch1,Length=0.001,Units=km,switch=T !numEQ 73726
new line.CTR106582 bus1=BMT120730754.1.2.3,bus2=BMT175526858.1.2.3,Phases=3,LineCode=tieSwitch,Length=0.001,Units=km,switch=T !numEQ 73727
new line.CTR106596 bus1=BMT120730845.1,bus2=BMT120737551.1,Phases=1,LineCode=tieSwitch1,Length=0.001,Units=km,switch=T !numEQ 73379
new line.CTR106603 bus1=BMT120730866.1.2.3,bus2=BMT120737530.1.2.3,Phases=3,LineCode=tieSwitch,Length=0.001,Units=km,switch=T !numEQ 72673
new line.CTR106617 bus1=BMT175526871.1.2.3,bus2=BMT175527307.1.2.3,Phases=3,LineCode=tieSwitch,Length=0.001,Units=km,switch=T !numEQ 73383
new line.CTR106631 bus1=BMT120730985.1,bus2=BMT120734709.1,Phases=1,LineCode=tieSwitch1,Length=0.001,Units=km,switch=T !numEQ 72683
new line.CTR106638 bus1=BMT120730992.3,bus2=BMT160571323.3,Phases=1,LineCode=tieSwitch1,Length=0.001,Units=km,switch=T !numEQ 72684
new line.CTR106645 bus1=BMT120731006.1.2.3,bus2=BMT161202989.1.2.3,Phases=3,LineCode=tieSwitch,Length=0.001,Units=km,switch=T !numEQ 72665
new line.CTR106652 bus1=BMT120731055.3,bus2=BMT120734653.3,Phases=1,LineCode=tieSwitch1,Length=0.001,Units=km,switch=T !numEQ 72686
new line.CTR106659 bus1=BMT120731062.1,bus2=BMT120734576.1,Phases=1,LineCode=tieSwitch1,Length=0.001,Units=km,switch=T !numEQ 72687
new line.CTR106666 bus1=BMT120731195.1,bus2=BMT120734562.1,Phases=1,LineCode=tieSwitch1,Length=0.001,Units=km,switch=T !numEQ 72688
new line.CTR106680 bus1=BMT120734240.2,bus2=BMT165139883.2,Phases=1,LineCode=tieSwitch1,Length=0.001,Units=km,switch=T !numEQ 73419
new line.CTR106687 bus1=BMT120731244.1,bus2=BMT120734058.1,Phases=1,LineCode=tieSwitch1,Length=0.001,Units=km,switch=T !numEQ 74507
new line.CTR106694 bus1=BMT120731279.1,bus2=BMT148057264.1,Phases=1,LineCode=tieSwitch1,Length=0.001,Units=km,switch=T !numEQ 73386
new line.CTR106701 bus1=BMT120731286.3,bus2=BMT172061749.3,Phases=1,LineCode=tieSwitch1,Length=0.001,Units=km,switch=T !numEQ 72694
new line.CTR106708 bus1=BMT120731328.1.2.3,bus2=BMT120731335.1.2.3,Phases=3,LineCode=tieSwitch,Length=0.001,Units=km,switch=T !numEQ 72695
new line.CTR106722 bus1=BMT120731363.2,bus2=BMT120733897.2,Phases=1,LineCode=tieSwitch1,Length=0.001,Units=km,switch=T !numEQ 73069
new line.CTR106729 bus1=BMT120731419.1.2.3,bus2=BMT120733722.1.2.3,Phases=3,LineCode=tieSwitch,Length=0.001,Units=km,switch=T !numEQ 72697
new line.CTR106736 bus1=BMT120731433.1.2.3,bus2=BMT120733526.1.2.3,Phases=3,LineCode=tieSwitch,Length=0.001,Units=km,switch=T !numEQ 91385
new line.CTR106743 bus1=BMT120731048.2,bus2=BMT160010290.2,Phases=1,LineCode=tieSwitch1,Length=0.001,Units=km,switch=T !numEQ 72972
new line.CTR106750 bus1=BMT120731524.1.2.3,bus2=BMT171485172.1.2.3,Phases=3,LineCode=tieSwitch,Length=0.001,Units=km,switch=T !numEQ 72698
new line.CTR106757 bus1=BMT120731601.1.2.3,bus2=BMT120731629.1.2.3,Phases=3,LineCode=tieSwitch,Length=0.001,Units=km,switch=T !numEQ 72702
new line.CTR106764 bus1=BMT120731741.2,bus2=BMT176257845.2,Phases=1,LineCode=tieSwitch1,Length=0.001,Units=km,switch=T !numEQ 72975
new line.CTR106771 bus1=BMT120731804.3,bus2=BMT120733218.3,Phases=1,LineCode=tieSwitch1,Length=0.001,Units=km,switch=T !numEQ 15298
new line.CTR106778 bus1=BMT120726792.1.2.3,bus2=BMT120727793.1.2.3,Phases=3,LineCode=tieSwitch,Length=0.001,Units=km,switch=T !numEQ 102343
new line.CTR106785 bus1=BMT120731993.2,bus2=BMT159797171.2,Phases=1,LineCode=tieSwitch1,Length=0.001,Units=km,switch=T !numEQ 74404
new line.CTR106792 bus1=BMT120732042.1,bus2=BMT174637959.1,Phases=1,LineCode=tieSwitch1,Length=0.001,Units=km,switch=T !numEQ 73336
new line.CTR11424 bus1=BMT120738307.2,bus2=BMT169764791.2,Phases=1,LineCode=tieSwitch1,Length=0.001,Units=km,switch=T !numEQ 79899
new line.CTR109655 bus1=BMT168452079.2,bus2=BMT120701060.2,Phases=1,LineCode=tieSwitch1,Length=0.001,Units=km,switch=T !numEQ 119869
new line.CTR109802 bus1=BMT120689573.1.2.3,bus2=BMT163856392.1.2.3,Phases=3,LineCode=tieSwitch,Length=0.001,Units=km,switch=T !numEQ 72537
new line.CTR109816 bus1=BMT120699394.2,bus2=BMT174363011.2,Phases=1,LineCode=tieSwitch1,Length=0.001,Units=km,switch=T !numEQ 72613
new line.CTR109844 bus1=BMT120689559.3,bus2=BMT120702369.3,Phases=1,LineCode=tieSwitch1,Length=0.001,Units=km,switch=T !numEQ 72528
new line.CTR109851 bus1=BMT120689587.1.2.3,bus2=BMT120689608.1.2.3,Phases=3,LineCode=tieSwitch,Length=0.001,Units=km,switch=T !numEQ 91435
new line.CTR109858 bus1=BMT120689650.1.2.3,bus2=BMT120689664.1.2.3,Phases=3,LineCode=tieSwitch,Length=0.001,Units=km,switch=T !numEQ 91436
new line.CTR109865 bus1=BMT120689671.1.2.3,bus2=BMT120700878.1.2.3,Phases=3,LineCode=tieSwitch,Length=0.001,Units=km,switch=T !numEQ 72545
new line.CTR109872 bus1=BMT120689685.1.2.3,bus2=BMT120689692.1.2.3,Phases=3,LineCode=tieSwitch,Length=0.001,Units=km,switch=T !numEQ 91437
new line.CTR109879 bus1=BMT120689811.1,bus2=BMT120700031.1,Phases=1,LineCode=tieSwitch1,Length=0.001,Units=km,switch=T !numEQ 85714
new line.CTR109886 bus1=BMT120689832.1.2.3,bus2=BMT174050658.1.2.3,Phases=3,LineCode=tieSwitch,Length=0.001,Units=km,switch=T !numEQ 91438
new line.CTR109893 bus1=BMT120689867.1.2.3,bus2=BMT174050593.1.2.3,Phases=3,LineCode=tieSwitch,Length=0.001,Units=km,switch=T !numEQ 72605
new line.CTR109907 bus1=BMT120689958.1.2.3,bus2=BMT175968520.1.2.3,Phases=3,LineCode=tieSwitch,Length=0.001,Units=km,switch=T !numEQ 72609
new line.CTR109914 bus1=BMT174607344.1.2.3,bus2=BMT174607605.1.2.3,Phases=3,LineCode=tieSwitch,Length=0.001,Units=km,switch=T !numEQ 72610
new line.CTR109921 bus1=BMT120690168.1.2.3,bus2=BMT141881289.1.2.3,Phases=3,LineCode=tieSwitch,Length=0.001,Units=km,switch=T !numEQ 72614
new line.CTR109928 bus1=BMT120695768.1.2.3,bus2=BMT175230676.1.2.3,Phases=3,LineCode=tieSwitch,Length=0.001,Units=km,switch=T !numEQ 73435
new line.CTR109956 bus1=BMT120696132.2,bus2=BMT120698540.2,Phases=1,LineCode=tieSwitch1,Length=0.001,Units=km,switch=T !numEQ 74218
new line.CTR109963 bus1=BMT120696230.2,bus2=BMT147936835.2,Phases=1,LineCode=tieSwitch1,Length=0.001,Units=km,switch=T !numEQ 72945
new line.CTR109970 bus1=BMT120696447.1.2.3,bus2=BMT120698526.1.2.3,Phases=3,LineCode=tieSwitch,Length=0.001,Units=km,switch=T !numEQ 74216
new line.CTR109977 bus1=BMT120696524.3,bus2=BMT139170210.3,Phases=1,LineCode=tieSwitch1,Length=0.001,Units=km,switch=T !numEQ 74214
new line.CTR109984 bus1=BMT120696538.1,bus2=BMT120698407.1,Phases=1,LineCode=tieSwitch1,Length=0.001,Units=km,switch=T !numEQ 74213
new line.CTR109991 bus1=BMT120696545.3,bus2=BMT135221265.3,Phases=1,LineCode=tieSwitch1,Length=0.001,Units=km,switch=T !numEQ 72619
new line.CTR109998 bus1=BMT120696573.1,bus2=BMT172522560.1,Phases=1,LineCode=tieSwitch1,Length=0.001,Units=km,switch=T !numEQ 74209
new line.CTR110005 bus1=BMT120697154.3,bus2=BMT175307274.3,Phases=1,LineCode=tieSwitch1,Length=0.001,Units=km,switch=T !numEQ 74212
new line.CTR110012 bus1=BMT120697427.3,bus2=BMT168003660.3,Phases=1,LineCode=tieSwitch1,Length=0.001,Units=km,switch=T !numEQ 15300
new line.CTR110019 bus1=BMT120696531.1,bus2=BMT120696622.1,Phases=1,LineCode=tieSwitch1,Length=0.001,Units=km,switch=T !numEQ 74215
new line.CTR110033 bus1=BMT120695915.1.2.3,bus2=BMT167875401.1.2.3,Phases=3,LineCode=tieSwitch,Length=0.001,Units=km,switch=T !numEQ 91298
new line.CTR110047 bus1=BMT120695859.1.2.3,bus2=BMT168083333.1.2.3,Phases=3,LineCode=tieSwitch,Length=0.001,Units=km,switch=T !numEQ 84930
new line.CTR110068 bus1=BMT120690553.1.2.3,bus2=BMT175646893.1.2.3,Phases=3,LineCode=tieSwitch,Length=0.001,Units=km,switch=T !numEQ 84848
new line.CTR110075 bus1=BMT173461075.1.2.3,bus2=BMT120690266.1.2.3,Phases=3,LineCode=tieSwitch,Length=0.001,Units=km,switch=T !numEQ 314975
new line.CTR110082 bus1=BMT120690504.1.2.3,bus2=BMT120695663.1.2.3,Phases=3,LineCode=tieSwitch,Length=0.001,Units=km,switch=T !numEQ 84486
new line.CTR110089 bus1=BMT175223086.1.2.3,bus2=BMT120690532.1.2.3,Phases=3,LineCode=tieSwitch,Length=0.001,Units=km,switch=T !numEQ 73431
new line.CTR110103 bus1=BMT165980018.1.2.3,bus2=BMT120690567.1.2.3,Phases=3,LineCode=tieSwitch,Length=0.001,Units=km,switch=T !numEQ 91289
new line.CTR110138 bus1=BMT120691631.2,bus2=BMT174046815.2,Phases=1,LineCode=tieSwitch1,Length=0.001,Units=km,switch=T !numEQ 74206
new line.CTR110145 bus1=BMT172308269.2,bus2=BMT2544311.2,Phases=1,LineCode=tieSwitch1,Length=0.001,Units=km,switch=T !numEQ 74207
open line.CTR110145 term=1
new line.CTR110152 bus1=BMT172027030.2,bus2=BMT120704357.2,Phases=1,LineCode=tieSwitch1,Length=0.001,Units=km,switch=T !numEQ 75001
new line.CTR110166 bus1=BMT120693724.2,bus2=BMT155278292.2,Phases=1,LineCode=tieSwitch1,Length=0.001,Units=km,switch=T !numEQ 214307
new line.CTR110173 bus1=BMT120693780.3,bus2=BMT172423190.3,Phases=1,LineCode=tieSwitch1,Length=0.001,Units=km,switch=T !numEQ 214311
new line.CTR110180 bus1=BMT120693794.3,bus2=BMT161577489.3,Phases=1,LineCode=tieSwitch1,Length=0.001,Units=km,switch=T !numEQ 72959
new line.CTR110187 bus1=BMT120693808.3,bus2=BMT172119299.3,Phases=1,LineCode=tieSwitch1,Length=0.001,Units=km,switch=T !numEQ 72960
new line.CTR110194 bus1=BMT120694151.3,bus2=BMT147857980.3,Phases=1,LineCode=tieSwitch1,Length=0.001,Units=km,switch=T !numEQ 73019
new line.CTR110201 bus1=BMT120689909.1.2.3,bus2=BMT174408726.1.2.3,Phases=3,LineCode=tieSwitch,Length=0.001,Units=km,switch=T !numEQ 329727
new line.CTR119770 bus1=BMT172738406.1.2.3,bus2=BMT172738411.1.2.3,Phases=3,LineCode=tieSwitch,Length=0.001,Units=km,switch=T !numEQ 74186
new line.CTR119802 bus1=BMT136956348.1.2.3,bus2=BMT136956201.1.2.3,Phases=3,LineCode=tieSwitch,Length=0.001,Units=km,switch=T !numEQ 286812
open line.CTR119802 term=1
new line.CTR121065 bus1=BMT120727191.1,bus2=BMT120727324.1,Phases=1,LineCode=tieSwitch1,Length=0.001,Units=km,switch=T !numEQ 172469
new line.CTR129647 bus1=BMT120702642.2,bus2=BMT120707248.2,Phases=1,LineCode=tieSwitch1,Length=0.001,Units=km,switch=T !numEQ 116354
new line.CTR142289 bus1=BMT120726918.1,bus2=BMT170958739.1,Phases=1,LineCode=tieSwitch1,Length=0.001,Units=km,switch=T !numEQ 72601
new line.CTR142730 bus1=BMT173837873.1,bus2=BMT120698624.1,Phases=1,LineCode=tieSwitch1,Length=0.001,Units=km,switch=T !numEQ 72618
open line.CTR142730 term=1
new line.CTR106799 bus1=BMT120732084.1,bus2=BMT120732238.1,Phases=1,LineCode=tieSwitch1,Length=0.001,Units=km,switch=T !numEQ 73369
new line.CTR106820 bus1=BMT120734793.1,bus2=BMT120736424.1,Phases=1,LineCode=tieSwitch1,Length=0.001,Units=km,switch=T !numEQ 74498
new line.CTR106827 bus1=BMT120734821.1,bus2=BMT176540660.1,Phases=1,LineCode=tieSwitch1,Length=0.001,Units=km,switch=T !numEQ 73391
new line.CTR106834 bus1=BMT120734828.3,bus2=BMT154772156.3,Phases=1,LineCode=tieSwitch1,Length=0.001,Units=km,switch=T !numEQ 72677
new line.CTR106841 bus1=BMT120729368.2,bus2=BMT120741688.2,Phases=1,LineCode=tieSwitch1,Length=0.001,Units=km,switch=T !numEQ 72637
new line.CTR106848 bus1=BMT120734863.1.2.3,bus2=BMT175434149.1.2.3,Phases=3,LineCode=tieSwitch,Length=0.001,Units=km,switch=T !numEQ 73772
new line.CTR106869 bus1=BMT120734933.3,bus2=BMT120736074.3,Phases=1,LineCode=tieSwitch1,Length=0.001,Units=km,switch=T !numEQ 72896
new line.CTR106883 bus1=BMT120738293.1.2.3,bus2=BMT176488619.1.2.3,Phases=3,LineCode=tieSwitch,Length=0.001,Units=km,switch=T !numEQ 79886
new line.CTR106897 bus1=BMT120734996.2,bus2=BMT120735073.2,Phases=1,LineCode=tieSwitch1,Length=0.001,Units=km,switch=T !numEQ 72801
new line.CTR106918 bus1=BMT120737950.1.2.3,bus2=BMT174891261.1.2.3,Phases=3,LineCode=tieSwitch,Length=0.001,Units=km,switch=T !numEQ 72649
new line.CTR106925 bus1=BMT120738104.3,bus2=BMT120741289.3,Phases=1,LineCode=tieSwitch1,Length=0.001,Units=km,switch=T !numEQ 73365
new line.CTR106932 bus1=BMT120738167.1,bus2=BMT120741177.1,Phases=1,LineCode=tieSwitch1,Length=0.001,Units=km,switch=T !numEQ 72885
new line.CTR106939 bus1=BMT120738216.1.2.3,bus2=BMT173083115.1.2.3,Phases=3,LineCode=tieSwitch,Length=0.001,Units=km,switch=T !numEQ 73362
new line.CTR106946 bus1=BMT120738230.3,bus2=BMT141014402.3,Phases=1,LineCode=tieSwitch1,Length=0.001,Units=km,switch=T !numEQ 72661
new line.CTR106953 bus1=BMT120738265.2,bus2=BMT120739854.2,Phases=1,LineCode=tieSwitch1,Length=0.001,Units=km,switch=T !numEQ 73358
new line.CTR106960 bus1=BMT120738349.2,bus2=BMT174267638.2,Phases=1,LineCode=tieSwitch1,Length=0.001,Units=km,switch=T !numEQ 72916
new line.CTR106974 bus1=BMT120741569.3,bus2=BMT120741583.3,Phases=1,LineCode=tieSwitch1,Length=0.001,Units=km,switch=T !numEQ 73071
new line.CTR106995 bus1=BMT120707388.1.2.3,bus2=BMT170436856.1.2.3,Phases=3,LineCode=tieSwitch,Length=0.001,Units=km,switch=T !numEQ 75009
new line.CTR107002 bus1=BMT120707430.1.2.3,bus2=BMT169987431.1.2.3,Phases=3,LineCode=tieSwitch,Length=0.001,Units=km,switch=T !numEQ 85307
new line.CTR107023 bus1=BMT120707472.1.2.3,bus2=BMT173591012.1.2.3,Phases=3,LineCode=tieSwitch,Length=0.001,Units=km,switch=T !numEQ 72512
new line.CTR107030 bus1=BMT120707549.1.2.3,bus2=BMT168337366.1.2.3,Phases=3,LineCode=tieSwitch,Length=0.001,Units=km,switch=T !numEQ 73250
new line.CTR107044 bus1=BMT120710531.1.2.3,bus2=BMT170830475.1.2.3,Phases=3,LineCode=tieSwitch,Length=0.001,Units=km,switch=T !numEQ 72514
new line.CTR107051 bus1=BMT120710601.1.2.3,bus2=BMT174645461.1.2.3,Phases=3,LineCode=tieSwitch,Length=0.001,Units=km,switch=T !numEQ 72750
new line.CTR107058 bus1=BMT120710811.1,bus2=BMT120716439.1,Phases=1,LineCode=tieSwitch1,Length=0.001,Units=km,switch=T !numEQ 72754
new line.CTR107079 bus1=BMT120710937.1.2.3,bus2=BMT172346317.1.2.3,Phases=3,LineCode=tieSwitch,Length=0.001,Units=km,switch=T !numEQ 73319
new line.CTR107086 bus1=BMT120711028.3,bus2=BMT149645171.3,Phases=1,LineCode=tieSwitch1,Length=0.001,Units=km,switch=T !numEQ 72989
new line.CTR107093 bus1=BMT120711126.3,bus2=BMT176670372.3,Phases=1,LineCode=tieSwitch1,Length=0.001,Units=km,switch=T !numEQ 72759
new line.CTR107107 bus1=BMT120707752.1.2.3,bus2=BMT140546207.1.2.3,Phases=3,LineCode=tieSwitch,Length=0.001,Units=km,switch=T !numEQ 85231
new line.CTR107114 bus1=BMT120707717.1.2.3,bus2=BMT173614083.1.2.3,Phases=3,LineCode=tieSwitch,Length=0.001,Units=km,switch=T !numEQ 85228
new line.CTR107121 bus1=BMT120707906.1.2.3,bus2=BMT120708074.1.2.3,Phases=3,LineCode=tieSwitch,Length=0.001,Units=km,switch=T !numEQ 84803
new line.CTR107128 bus1=BMT120708242.1.2.3,bus2=BMT167357557.1.2.3,Phases=3,LineCode=tieSwitch,Length=0.001,Units=km,switch=T !numEQ 15289
new line.CTR107149 bus1=BMT120708179.1.2.3,bus2=BMT142241446.1.2.3,Phases=3,LineCode=tieSwitch,Length=0.001,Units=km,switch=T !numEQ 15292
new line.CTR107177 bus1=BMT120707661.1.2.3,bus2=BMT161753026.1.2.3,Phases=3,LineCode=tieSwitch,Length=0.001,Units=km,switch=T !numEQ 84807
new line.CTR107338 bus1=BMT120696615.1.2.3,bus2=BMT176301708.1.2.3,Phases=3,LineCode=tieSwitch,Length=0.001,Units=km,switch=T !numEQ 74208
new line.CTR108290 bus1=BMT120696153.1.2.3,bus2=BMT170416189.1.2.3,Phases=3,LineCode=tieSwitch,Length=0.001,Units=km,switch=T !numEQ 142364
new line.CTR137256 bus1=BMT120731076.1,bus2=BMT162428309.1,Phases=1,LineCode=tieSwitch1,Length=0.001,Units=km,switch=T !numEQ 131470
new line.CTR153972 bus1=BMT120718644.1.2.3,bus2=BMT169036757.1.2.3,Phases=3,LineCode=tieSwitch,Length=0.001,Units=km,switch=T !numEQ 175146
new line.CTR154672 bus1=BMT120735878.1,bus2=BMT165319883.1,Phases=1,LineCode=tieSwitch1,Length=0.001,Units=km,switch=T !numEQ 213948
new line.CTR154686 bus1=BMT120738433.1,bus2=BMT120739658.1,Phases=1,LineCode=tieSwitch1,Length=0.001,Units=km,switch=T !numEQ 212789
new line.CTR174573 bus1=BMT120728031.2,bus2=BMT120728143.2,Phases=1,LineCode=tieSwitch1,Length=0.001,Units=km,switch=T !numEQ 116725
new line.CTR17465 bus1=BMT120696237.1,bus2=BMT160156155.1,Phases=1,LineCode=tieSwitch1,Length=0.001,Units=km,switch=T !numEQ 74221
new line.CTR174671 bus1=BMT120726722.2,bus2=BMT150374008.2,Phases=1,LineCode=tieSwitch1,Length=0.001,Units=km,switch=T !numEQ 91329
new line.CTR174888 bus1=BMT120696209.2,bus2=BMT167759058.2,Phases=1,LineCode=tieSwitch1,Length=0.001,Units=km,switch=T !numEQ 103752
new line.CTR175259 bus1=BMT120741709.1.2.3,bus2=BMT120741716.1.2.3,Phases=3,LineCode=tieSwitch,Length=0.001,Units=km,switch=T !numEQ 171677
new line.CTR175315 bus1=BMT120718756.1.2.3,bus2=BMT120724237.1.2.3,Phases=3,LineCode=tieSwitch,Length=0.001,Units=km,switch=T !numEQ 171818
new line.CTR175322 bus1=BMT120718763.1.2.3,bus2=BMT175118605.1.2.3,Phases=3,LineCode=tieSwitch,Length=0.001,Units=km,switch=T !numEQ 73119
new line.CTR175329 bus1=BMT120718833.1,bus2=BMT120723740.1,Phases=1,LineCode=tieSwitch1,Length=0.001,Units=km,switch=T !numEQ 73317
new line.CTR110243 bus1=BMT120700374.1,bus2=BMT134588794.1,Phases=1,LineCode=tieSwitch1,Length=0.001,Units=km,switch=T !numEQ 72565
new line.CTR110257 bus1=BMT120689510.3,bus2=BMT120702404.3,Phases=1,LineCode=tieSwitch1,Length=0.001,Units=km,switch=T !numEQ 73382
new line.CTR111909 bus1=BMT120726967.1,bus2=BMT174829121.1,Phases=1,LineCode=tieSwitch1,Length=0.001,Units=km,switch=T !numEQ 173659
new line.CTR125405 bus1=BMT120690336.1.2.3,bus2=BMT120690392.1.2.3,Phases=3,LineCode=tieSwitch,Length=0.001,Units=km,switch=T !numEQ 173973
new line.CTR141414 bus1=BMT120718511.2,bus2=BMT163068356.2,Phases=1,LineCode=tieSwitch1,Length=0.001,Units=km,switch=T !numEQ 91352
new line.CTR141442 bus1=BMT120707465.1.2.3,bus2=BMT120717363.1.2.3,Phases=3,LineCode=tieSwitch,Length=0.001,Units=km,switch=T !numEQ 73458
new line.CTR141771 bus1=BMT120705267.1.2.3,bus2=BMT120706345.1.2.3,Phases=3,LineCode=tieSwitch,Length=0.001,Units=km,switch=T !numEQ 74256
new line.CTR154910 bus1=BMT120718749.1.2.3,bus2=BMT176286198.1.2.3,Phases=3,LineCode=tieSwitch,Length=0.001,Units=km,switch=T !numEQ 119867
new line.CTR154924 bus1=BMT120719204.3,bus2=BMT120721990.3,Phases=1,LineCode=tieSwitch1,Length=0.001,Units=km,switch=T !numEQ 73172
new line.CTR155736 bus1=BMT120728885.1.2.3,bus2=BMT169494413.1.2.3,Phases=3,LineCode=tieSwitch,Length=0.001,Units=km,switch=T !numEQ 174384
new line.CTR155953 bus1=BMT120708683.3,bus2=BMT120709558.3,Phases=1,LineCode=tieSwitch1,Length=0.001,Units=km,switch=T !numEQ 175151
new line.CTR168182 bus1=BMT120718147.1.2.3,bus2=BMT170140488.1.2.3,Phases=3,LineCode=tieSwitch,Length=0.001,Units=km,switch=T !numEQ 84955
new line.CTR168483 bus1=BMT120729403.1.2.3,bus2=BMT120729410.1.2.3,Phases=3,LineCode=tieSwitch,Length=0.001,Units=km,switch=T !numEQ 91378
new line.CTR1687 bus1=BMT120728780.1.2.3,bus2=BMT120729109.1.2.3,Phases=3,LineCode=tieSwitch,Length=0.001,Units=km,switch=T !numEQ 72973
new line.CTR169106 bus1=BMT120700381.1.2.3,bus2=BMT120700388.1.2.3,Phases=3,LineCode=tieSwitch,Length=0.001,Units=km,switch=T !numEQ 85681
new line.CTR169232 bus1=BMT120718903.3,bus2=BMT176128551.3,Phases=1,LineCode=tieSwitch1,Length=0.001,Units=km,switch=T !numEQ 73123
new line.CTR169365 bus1=BMT120712029.2,bus2=BMT172693177.2,Phases=1,LineCode=tieSwitch1,Length=0.001,Units=km,switch=T !numEQ 173267
new line.CTR169491 bus1=BMT120722697.3,bus2=BMT120723012.3,Phases=1,LineCode=tieSwitch1,Length=0.001,Units=km,switch=T !numEQ 173476
new line.CTR169855 bus1=BMT120697371.3,bus2=BMT133896914.3,Phases=1,LineCode=tieSwitch1,Length=0.001,Units=km,switch=T !numEQ 174769
new line.CTR169883 bus1=BMT120706457.1,bus2=BMT160229377.1,Phases=1,LineCode=tieSwitch1,Length=0.001,Units=km,switch=T !numEQ 174774
new line.CTR17584 bus1=BMT120717615.1.2.3,bus2=BMT120725742.1.2.3,Phases=3,LineCode=tieSwitch,Length=0.001,Units=km,switch=T !numEQ 73714
new line.CTR175840 bus1=BMT120732056.1,bus2=BMT120732105.1,Phases=1,LineCode=tieSwitch1,Length=0.001,Units=km,switch=T !numEQ 174743
new line.CTR17591 bus1=BMT120717650.1.2.3,bus2=BMT174942483.1.2.3,Phases=3,LineCode=tieSwitch,Length=0.001,Units=km,switch=T !numEQ 85742
new line.CTR17598 bus1=BMT120717713.1.2.3,bus2=BMT174518319.1.2.3,Phases=3,LineCode=tieSwitch,Length=0.001,Units=km,switch=T !numEQ 72481
new line.CTR175980 bus1=BMT120740428.3,bus2=BMT158442758.3,Phases=1,LineCode=tieSwitch1,Length=0.001,Units=km,switch=T !numEQ 171759
new line.CTR17605 bus1=BMT120725623.1.2.3,bus2=BMT171035754.1.2.3,Phases=3,LineCode=tieSwitch,Length=0.001,Units=km,switch=T !numEQ 283506
new line.CTR176064 bus1=BMT120692807.2,bus2=BMT120692898.2,Phases=1,LineCode=tieSwitch1,Length=0.001,Units=km,switch=T !numEQ 116485
new line.CTR17619 bus1=BMT120717951.1.2.3,bus2=BMT128526500.1.2.3,Phases=3,LineCode=tieSwitch,Length=0.001,Units=km,switch=T !numEQ 91330
new line.CTR17633 bus1=BMT120718091.1.2.3,bus2=BMT120725098.1.2.3,Phases=3,LineCode=tieSwitch,Length=0.001,Units=km,switch=T !numEQ 85728
new line.CTR17640 bus1=BMT120725133.1,bus2=BMT120725168.1,Phases=1,LineCode=tieSwitch1,Length=0.001,Units=km,switch=T !numEQ 91332
new line.CTR17668 bus1=BMT120724951.1.2.3,bus2=BMT163025920.1.2.3,Phases=3,LineCode=tieSwitch,Length=0.001,Units=km,switch=T !numEQ 288393
new line.CTR176827 bus1=BMT120708697.3,bus2=BMT175325763.3,Phases=1,LineCode=tieSwitch1,Length=0.001,Units=km,switch=T !numEQ 126793
new line.CTR17696 bus1=BMT170188273.1.2.3,bus2=BMT2861600.1.2.3,Phases=3,LineCode=tieSwitch,Length=0.001,Units=km,switch=T !numEQ 74621
open line.CTR17696 term=1
new line.CTR17703 bus1=BMT120725861.1.2.3,bus2=BMT155044408.1.2.3,Phases=3,LineCode=tieSwitch,Length=0.001,Units=km,switch=T !numEQ 74500
new line.CTR17710 bus1=BMT120725903.1.2.3,bus2=BMT172653524.1.2.3,Phases=3,LineCode=tieSwitch,Length=0.001,Units=km,switch=T !numEQ 72022
new line.CTR17717 bus1=BMT120726078.1.2.3,bus2=BMT136956313.1.2.3,Phases=3,LineCode=tieSwitch,Length=0.001,Units=km,switch=T !numEQ 72472
new line.CTR17724 bus1=BMT120726169.1.2.3,bus2=BMT120726505.1.2.3,Phases=3,LineCode=tieSwitch,Length=0.001,Units=km,switch=T !numEQ 85243
new line.CTR17731 bus1=BMT120726512.1.2.3,bus2=BMT120728479.1.2.3,Phases=3,LineCode=tieSwitch,Length=0.001,Units=km,switch=T !numEQ 73712
new line.CTR177380 bus1=BMT120689734.1,bus2=BMT120700304.1,Phases=1,LineCode=tieSwitch1,Length=0.001,Units=km,switch=T !numEQ 173013
new line.CTR17745 bus1=BMT120726603.1.2.3,bus2=BMT120726638.1.2.3,Phases=3,LineCode=tieSwitch,Length=0.001,Units=km,switch=T !numEQ 72476
new line.CTR17752 bus1=BMT120726673.1.2.3,bus2=BMT120727849.1.2.3,Phases=3,LineCode=tieSwitch,Length=0.001,Units=km,switch=T !numEQ 72477
new line.CTR19075 bus1=BMT120738139.3,bus2=BMT120741219.3,Phases=1,LineCode=tieSwitch1,Length=0.001,Units=km,switch=T !numEQ 72994
new line.CTR19082 bus1=BMT120738174.3,bus2=BMT120741128.3,Phases=1,LineCode=tieSwitch1,Length=0.001,Units=km,switch=T !numEQ 72884
new line.CTR19089 bus1=BMT120738251.1,bus2=BMT159652706.1,Phases=1,LineCode=tieSwitch1,Length=0.001,Units=km,switch=T !numEQ 73359
new line.CTR19096 bus1=BMT120731699.1.2.3,bus2=BMT120731720.1.2.3,Phases=3,LineCode=tieSwitch,Length=0.001,Units=km,switch=T !numEQ 72704
new line.CTR19103 bus1=BMT120738279.2,bus2=BMT120739840.2,Phases=1,LineCode=tieSwitch1,Length=0.001,Units=km,switch=T !numEQ 72664
new line.CTR191114 bus1=BMT120716187.3,bus2=BMT172093881.3,Phases=1,LineCode=tieSwitch1,Length=0.001,Units=km,switch=T !numEQ 207184
new line.CTR19117 bus1=BMT120738335.2,bus2=BMT120739798.2,Phases=1,LineCode=tieSwitch1,Length=0.001,Units=km,switch=T !numEQ 73356
new line.CTR11501 bus1=BMT120711084.1,bus2=BMT120714542.1,Phases=1,LineCode=tieSwitch1,Length=0.001,Units=km,switch=T !numEQ 72992
new line.CTR123928 bus1=BMT120718476.2,bus2=BMT135076638.2,Phases=1,LineCode=tieSwitch1,Length=0.001,Units=km,switch=T !numEQ 72090
new line.CTR124733 bus1=BMT120733575.3,bus2=BMT155772617.3,Phases=1,LineCode=tieSwitch1,Length=0.001,Units=km,switch=T !numEQ 131468
new line.CTR13860 bus1=BMT120693227.2,bus2=BMT167146638.2,Phases=1,LineCode=tieSwitch1,Length=0.001,Units=km,switch=T !numEQ 214297
new line.CTR147693 bus1=BMT120740358.3,bus2=BMT172682925.3,Phases=1,LineCode=tieSwitch1,Length=0.001,Units=km,switch=T !numEQ 377875
new line.CTR147805 bus1=BMT120689965.1.2.3,bus2=BMT163111090.1.2.3,Phases=3,LineCode=tieSwitch,Length=0.001,Units=km,switch=T !numEQ 84770
new line.CTR148554 bus1=BMT120726519.1.2.3,bus2=BMT150343932.1.2.3,Phases=3,LineCode=tieSwitch,Length=0.001,Units=km,switch=T !numEQ 73710
new line.CTR159320 bus1=BMT120733757.3,bus2=BMT147974320.3,Phases=1,LineCode=tieSwitch1,Length=0.001,Units=km,switch=T !numEQ 131469
new line.CTR159369 bus1=BMT120710874.2,bus2=BMT120715529.2,Phases=1,LineCode=tieSwitch1,Length=0.001,Units=km,switch=T !numEQ 73014
new line.CTR159670 bus1=BMT156775832.1,bus2=BMT156775945.1,Phases=1,LineCode=tieSwitch1,Length=0.001,Units=km,switch=T !numEQ 103767
new line.CTR159950 bus1=BMT120700206.1,bus2=BMT175311435.1,Phases=1,LineCode=tieSwitch1,Length=0.001,Units=km,switch=T !numEQ 101706
new line.CTR159964 bus1=BMT120718525.2,bus2=BMT160396045.2,Phases=1,LineCode=tieSwitch1,Length=0.001,Units=km,switch=T !numEQ 72501
new line.CTR170142 bus1=BMT120731398.1,bus2=BMT120733883.1,Phases=1,LineCode=tieSwitch1,Length=0.001,Units=km,switch=T !numEQ 174676
new line.CTR170282 bus1=BMT120717188.2,bus2=BMT162418544.2,Phases=1,LineCode=tieSwitch1,Length=0.001,Units=km,switch=T !numEQ 172425
new line.CTR170289 bus1=BMT120717146.1.2.3,bus2=BMT175183149.1.2.3,Phases=3,LineCode=tieSwitch,Length=0.001,Units=km,switch=T !numEQ 174643
new line.CTR170597 bus1=BMT120702796.1.2.3,bus2=BMT166360482.1.2.3,Phases=3,LineCode=tieSwitch,Length=0.001,Units=km,switch=T !numEQ 133752
new line.CTR170737 bus1=BMT120729494.1,bus2=BMT120730299.1,Phases=1,LineCode=tieSwitch1,Length=0.001,Units=km,switch=T !numEQ 142706
new line.CTR170905 bus1=BMT120705372.3,bus2=BMT120705960.3,Phases=1,LineCode=tieSwitch1,Length=0.001,Units=km,switch=T !numEQ 172879
new line.CTR170926 bus1=BMT120713989.2,bus2=BMT162358891.2,Phases=1,LineCode=tieSwitch1,Length=0.001,Units=km,switch=T !numEQ 172747
new line.CTR171010 bus1=BMT120731916.3,bus2=BMT120731944.3,Phases=1,LineCode=tieSwitch1,Length=0.001,Units=km,switch=T !numEQ 174524
new line.CTR171402 bus1=BMT120726323.1.2.3,bus2=BMT150343926.1.2.3,Phases=3,LineCode=tieSwitch,Length=0.001,Units=km,switch=T !numEQ 174484
new line.CTR171500 bus1=BMT174737685.1.2.3,bus2=BMT120710769.1.2.3,Phases=3,LineCode=tieSwitch,Length=0.001,Units=km,switch=T !numEQ 173654
new line.CTR171591 bus1=BMT120717300.1.2.3,bus2=BMT120717307.1.2.3,Phases=3,LineCode=tieSwitch,Length=0.001,Units=km,switch=T !numEQ 171711
new line.CTR171731 bus1=BMT120699268.2,bus2=BMT159957027.2,Phases=1,LineCode=tieSwitch1,Length=0.001,Units=km,switch=T !numEQ 134783
new line.CTR184576 bus1=BMT120722263.3,bus2=BMT172019062.3,Phases=1,LineCode=tieSwitch1,Length=0.001,Units=km,switch=T !numEQ 174771
new line.CTR184681 bus1=BMT120696503.3,bus2=BMT120698498.3,Phases=1,LineCode=tieSwitch1,Length=0.001,Units=km,switch=T !numEQ 197211
new line.CTR184688 bus1=BMT120696482.1,bus2=BMT120698512.1,Phases=1,LineCode=tieSwitch1,Length=0.001,Units=km,switch=T !numEQ 197362
new line.CTR19271 bus1=BMT120734919.3,bus2=BMT127765817.3,Phases=1,LineCode=tieSwitch1,Length=0.001,Units=km,switch=T !numEQ 73393
new line.CTR192717 bus1=BMT120712225.2,bus2=BMT120712421.2,Phases=1,LineCode=tieSwitch1,Length=0.001,Units=km,switch=T !numEQ 214150
new line.CTR19278 bus1=BMT120734926.2,bus2=BMT120736123.2,Phases=1,LineCode=tieSwitch1,Length=0.001,Units=km,switch=T !numEQ 73066
new line.CTR192815 bus1=BMT120711616.2,bus2=BMT120712897.2,Phases=1,LineCode=tieSwitch1,Length=0.001,Units=km,switch=T !numEQ 199095
new line.CTR19285 bus1=BMT120734968.3,bus2=BMT120735724.3,Phases=1,LineCode=tieSwitch1,Length=0.001,Units=km,switch=T !numEQ 72679
new line.CTR19299 bus1=BMT120704938.2,bus2=BMT120704952.2,Phases=1,LineCode=tieSwitch1,Length=0.001,Units=km,switch=T !numEQ 73412
new line.CTR19306 bus1=BMT120708277.1.2.3,bus2=BMT120708326.1.2.3,Phases=3,LineCode=tieSwitch,Length=0.001,Units=km,switch=T !numEQ 72511
new line.CTR193214 bus1=BMT167875410.1.2.3,bus2=BMT120690728.1.2.3,Phases=3,LineCode=tieSwitch,Length=0.001,Units=km,switch=T !numEQ 221526
open line.CTR193214 term=1
new line.CTR19327 bus1=BMT120709782.3,bus2=BMT172632368.3,Phases=1,LineCode=tieSwitch1,Length=0.001,Units=km,switch=T !numEQ 73015
new line.CTR19341 bus1=BMT120727954.1.2.3,bus2=BMT120728178.1.2.3,Phases=3,LineCode=tieSwitch,Length=0.001,Units=km,switch=T !numEQ 125884
new line.CTR193431 bus1=BMT168003693.3,bus2=BMT120697644.3,Phases=1,LineCode=tieSwitch1,Length=0.001,Units=km,switch=T !numEQ 204838
new line.CTR19348 bus1=BMT120729340.1.2.3,bus2=BMT120729347.1.2.3,Phases=3,LineCode=tieSwitch,Length=0.001,Units=km,switch=T !numEQ 15356
new line.CTR19355 bus1=BMT120729361.1.2.3,bus2=BMT175526173.1.2.3,Phases=3,LineCode=tieSwitch,Length=0.001,Units=km,switch=T !numEQ 315089
new line.CTR19362 bus1=BMT120730348.3,bus2=BMT120730565.3,Phases=1,LineCode=tieSwitch1,Length=0.001,Units=km,switch=T !numEQ 73638
new line.CTR193683 bus1=BMT120731223.1.2.3,bus2=BMT159385147.1.2.3,Phases=3,LineCode=tieSwitch,Length=0.001,Units=km,switch=T !numEQ 227263
new line.CTR19369 bus1=BMT120729501.3,bus2=BMT120730285.3,Phases=1,LineCode=tieSwitch1,Length=0.001,Units=km,switch=T !numEQ 73407
new line.CTR19376 bus1=BMT120729585.1,bus2=BMT120730257.1,Phases=1,LineCode=tieSwitch1,Length=0.001,Units=km,switch=T !numEQ 73107
new line.CTR19383 bus1=BMT120729613.1.2.3,bus2=BMT158577560.1.2.3,Phases=3,LineCode=tieSwitch,Length=0.001,Units=km,switch=T !numEQ 15346
new line.CTR19390 bus1=BMT120729725.1,bus2=BMT120730082.1,Phases=1,LineCode=tieSwitch1,Length=0.001,Units=km,switch=T !numEQ 73030
new line.CTR193928 bus1=BMT120712729.2,bus2=BMT120712764.2,Phases=1,LineCode=tieSwitch1,Length=0.001,Units=km,switch=T !numEQ 203810
new line.CTR19397 bus1=BMT120729767.3,bus2=BMT160225553.3,Phases=1,LineCode=tieSwitch1,Length=0.001,Units=km,switch=T !numEQ 73114
new line.CTR100891 bus1=BMT120738363.3,bus2=BMT159995520.3,Phases=1,LineCode=tieSwitch1,Length=0.001,Units=km,switch=T !numEQ 72892
new line.CTR11655 bus1=BMT120694620.3,bus2=BMT174045632.3,Phases=1,LineCode=tieSwitch1,Length=0.001,Units=km,switch=T !numEQ 143733
new line.CTR116795 bus1=BMT120699058.1.2.3,bus2=BMT120699891.1.2.3,Phases=3,LineCode=tieSwitch,Length=0.001,Units=km,switch=T !numEQ 113009
new line.CTR117257 bus1=BMT120696804.1.2.3,bus2=BMT120696888.1.2.3,Phases=3,LineCode=tieSwitch,Length=0.001,Units=km,switch=T !numEQ 79961
new line.CTR117572 bus1=BMT120719484.1.2.3,bus2=BMT142251673.1.2.3,Phases=3,LineCode=tieSwitch,Length=0.001,Units=km,switch=T !numEQ 173421
new line.CTR132818 bus1=BMT120732945.3,bus2=BMT120732952.3,Phases=1,LineCode=tieSwitch1,Length=0.001,Units=km,switch=T !numEQ 174735
new line.CTR149527 bus1=BMT120725427.1.2.3,bus2=BMT174874457.1.2.3,Phases=3,LineCode=tieSwitch,Length=0.001,Units=km,switch=T !numEQ 84814
new line.CTR14973 bus1=BMT120699625.2,bus2=BMT158568463.2,Phases=1,LineCode=tieSwitch1,Length=0.001,Units=km,switch=T !numEQ 173895
new line.CTR162547 bus1=BMT120727870.1.2.3,bus2=BMT175122289.1.2.3,Phases=3,LineCode=tieSwitch,Length=0.001,Units=km,switch=T !numEQ 174346
new line.CTR163121 bus1=BMT120707444.1.2.3,bus2=BMT120717377.1.2.3,Phases=3,LineCode=tieSwitch,Length=0.001,Units=km,switch=T !numEQ 175176
new line.CTR163240 bus1=BMT120702579.1.2.3,bus2=BMT162674561.1.2.3,Phases=3,LineCode=tieSwitch,Length=0.001,Units=km,switch=T !numEQ 175012
new line.CTR163247 bus1=BMT120740302.3,bus2=BMT139346246.3,Phases=1,LineCode=tieSwitch1,Length=0.001,Units=km,switch=T !numEQ 73029
new line.CTR164031 bus1=BMT120710559.1.2.3,bus2=BMT120710608.1.2.3,Phases=3,LineCode=tieSwitch,Length=0.001,Units=km,switch=T !numEQ 137984
new line.CTR180327 bus1=BMT120726365.1.2.3,bus2=BMT120726400.1.2.3,Phases=3,LineCode=tieSwitch,Length=0.001,Units=km,switch=T !numEQ 172809
new line.CTR19418 bus1=BMT120729865.2,bus2=BMT120729907.2,Phases=1,LineCode=tieSwitch1,Length=0.001,Units=km,switch=T !numEQ 72652
new line.CTR194180 bus1=BMT120710902.2,bus2=BMT120715438.2,Phases=1,LineCode=tieSwitch1,Length=0.001,Units=km,switch=T !numEQ 201991
new line.CTR194187 bus1=BMT120711959.2,bus2=BMT120712869.2,Phases=1,LineCode=tieSwitch1,Length=0.001,Units=km,switch=T !numEQ 202767
new line.CTR194215 bus1=BMT120719008.2,bus2=BMT120723502.2,Phases=1,LineCode=tieSwitch1,Length=0.001,Units=km,switch=T !numEQ 202766
new line.CTR19425 bus1=BMT120702761.1.2.3,bus2=BMT160921892.1.2.3,Phases=3,LineCode=tieSwitch,Length=0.001,Units=km,switch=T !numEQ 73276
new line.CTR19439 bus1=BMT120702985.1,bus2=BMT120707143.1,Phases=1,LineCode=tieSwitch1,Length=0.001,Units=km,switch=T !numEQ 73016
new line.CTR19453 bus1=BMT132900842.2,bus2=BMT132900947.2,Phases=1,LineCode=tieSwitch1,Length=0.001,Units=km,switch=T !numEQ 74267
new line.CTR19460 bus1=BMT120703195.3,bus2=BMT120707052.3,Phases=1,LineCode=tieSwitch1,Length=0.001,Units=km,switch=T !numEQ 72550
new line.CTR194649 bus1=BMT120723579.3,bus2=BMT120723719.3,Phases=1,LineCode=tieSwitch1,Length=0.001,Units=km,switch=T !numEQ 207339
new line.CTR194663 bus1=BMT122809187.2,bus2=BMT170198115.2,Phases=1,LineCode=tieSwitch1,Length=0.001,Units=km,switch=T !numEQ 213876
new line.CTR19467 bus1=BMT120703279.1.2.3,bus2=BMT120706989.1.2.3,Phases=3,LineCode=tieSwitch,Length=0.001,Units=km,switch=T !numEQ 74246
new line.CTR194785772 bus1=BMTSEGM#973928860.1.2.3,bus2=BMTSEGM#584357316.1.2.3,Phases=3,LineCode=tieSwitch,Length=0.001,Units=km,switch=T !numEQ 
new line.CTR194785788 bus1=BMTSEGM#973928940.1.2.3,bus2=BMTSEGM#584357364.1.2.3,Phases=3,LineCode=tieSwitch,Length=0.001,Units=km,switch=T !numEQ 
new line.CTR194785800 bus1=BMTSEGM#973929000.1.2.3,bus2=BMTSEGM#584357400.1.2.3,Phases=3,LineCode=tieSwitch,Length=0.001,Units=km,switch=T !numEQ 
new line.CTR194785812 bus1=BMTSEGM#973929060.1.2.3,bus2=BMTSEGM#584357436.1.2.3,Phases=3,LineCode=tieSwitch,Length=0.001,Units=km,switch=T !numEQ 
new line.CTR194785824 bus1=BMTSEGM#973929120.1.2.3,bus2=BMTSEGM#584357472.1.2.3,Phases=3,LineCode=tieSwitch,Length=0.001,Units=km,switch=T !numEQ 
new line.CTR194785836 bus1=BMTSEGM#973929180.1.2.3,bus2=BMTSEGM#584357508.1.2.3,Phases=3,LineCode=tieSwitch,Length=0.001,Units=km,switch=T !numEQ 
new line.CTR194786026 bus1=BMTSEGM#973930130.1.2.3,bus2=BMTSEGM#584358078.1.2.3,Phases=3,LineCode=tieSwitch,Length=0.001,Units=km,switch=T !numEQ 
new line.CTR194786040 bus1=BMTSEGM#973930200.1.2.3,bus2=BMTSEGM#584358120.1.2.3,Phases=3,LineCode=tieSwitch,Length=0.001,Units=km,switch=T !numEQ 
new line.CTR194786054 bus1=BMTSEGM#973930270.1.2.3,bus2=BMTSEGM#584358162.1.2.3,Phases=3,LineCode=tieSwitch,Length=0.001,Units=km,switch=T !numEQ 
new line.CTR194786068 bus1=BMTSEGM#973930340.1.2.3,bus2=BMTSEGM#584358204.1.2.3,Phases=3,LineCode=tieSwitch,Length=0.001,Units=km,switch=T !numEQ 
new line.CTR194786096 bus1=BMTSEGM#973930480.1.2.3,bus2=BMTSEGM#584358288.1.2.3,Phases=3,LineCode=tieSwitch,Length=0.001,Units=km,switch=T !numEQ 
new line.CTR194786110 bus1=BMTSEGM#973930550.1.2.3,bus2=BMTSEGM#584358330.1.2.3,Phases=3,LineCode=tieSwitch,Length=0.001,Units=km,switch=T !numEQ 
new line.CTR194786276 bus1=BMTSEGM#973931380.1.2.3,bus2=BMTSEGM#584358828.1.2.3,Phases=3,LineCode=tieSwitch,Length=0.001,Units=km,switch=T !numEQ 
open line.CTR194786276 term=1
new line.CTR194786292 bus1=BMTSEGM#973931460.1.2.3,bus2=BMTSEGM#584358876.1.2.3,Phases=3,LineCode=tieSwitch,Length=0.001,Units=km,switch=T !numEQ 
open line.CTR194786292 term=1
new line.CTR194786304 bus1=BMTSEGM#973931520.1.2.3,bus2=BMTSEGM#584358912.1.2.3,Phases=3,LineCode=tieSwitch,Length=0.001,Units=km,switch=T !numEQ 
open line.CTR194786304 term=1
new line.CTR194786316 bus1=BMTSEGM#973931580.1.2.3,bus2=BMTSEGM#584358948.1.2.3,Phases=3,LineCode=tieSwitch,Length=0.001,Units=km,switch=T !numEQ 
open line.CTR194786316 term=1
new line.CTR194786340 bus1=BMTSEGM#973931700.1.2.3,bus2=BMTSEGM#584359020.1.2.3,Phases=3,LineCode=tieSwitch,Length=0.001,Units=km,switch=T !numEQ 
open line.CTR194786340 term=1
new line.CTR194786352 bus1=BMTSEGM#973931760.1.2.3,bus2=BMTSEGM#584359056.1.2.3,Phases=3,LineCode=tieSwitch,Length=0.001,Units=km,switch=T !numEQ 
open line.CTR194786352 term=1
new line.CTR19488 bus1=BMT163225391.1.2.3,bus2=BMT2541014.1.2.3,Phases=3,LineCode=tieSwitch,Length=0.001,Units=km,switch=T !numEQ 84949
open line.CTR19488 term=1
new line.CTR102165 bus1=BMT120705281.1.2.3,bus2=BMT120706268.1.2.3,Phases=3,LineCode=tieSwitch,Length=0.001,Units=km,switch=T !numEQ 128352
new line.CTR102599 bus1=BMT120731636.1.2.3,bus2=BMT120733414.1.2.3,Phases=3,LineCode=tieSwitch,Length=0.001,Units=km,switch=T !numEQ 100822
new line.CTR10276 bus1=BMT120700983.2,bus2=BMT120701683.2,Phases=1,LineCode=tieSwitch1,Length=0.001,Units=km,switch=T !numEQ 173012
new line.CTR102788 bus1=BMT120730859.3,bus2=BMT134499908.3,Phases=1,LineCode=tieSwitch1,Length=0.001,Units=km,switch=T !numEQ 130108
new line.CTR115633 bus1=BMT120726708.1.2.3,bus2=BMT120727835.1.2.3,Phases=3,LineCode=tieSwitch,Length=0.001,Units=km,switch=T !numEQ 85700
new line.CTR131033 bus1=BMT120734765.3,bus2=BMT157303040.3,Phases=1,LineCode=tieSwitch1,Length=0.001,Units=km,switch=T !numEQ 131986
new line.CTR144529 bus1=BMT138599682.1.2.3,bus2=BMT138633548.1.2.3,Phases=3,LineCode=tieSwitch,Length=0.001,Units=km,switch=T !numEQ 122162
new line.CTR161063 bus1=BMT120724524.1.2.3,bus2=BMT157286353.1.2.3,Phases=3,LineCode=tieSwitch,Length=0.001,Units=km,switch=T !numEQ 73033
new line.CTR17766 bus1=BMT120728087.2,bus2=BMT120728108.2,Phases=1,LineCode=tieSwitch1,Length=0.001,Units=km,switch=T !numEQ 73027
new line.CTR17787 bus1=BMT120726911.1,bus2=BMT120727716.1,Phases=1,LineCode=tieSwitch1,Length=0.001,Units=km,switch=T !numEQ 72398
new line.CTR17794 bus1=BMT2540559.1.2.3,bus2=BMT176130917.1.2.3,Phases=3,LineCode=tieSwitch,Length=0.001,Units=km,switch=T !numEQ 274096
open line.CTR17794 term=1 
new line.CTR17801 bus1=BMT120726106.1.2.3,bus2=BMT120726176.1.2.3,Phases=3,LineCode=tieSwitch,Length=0.001,Units=km,switch=T !numEQ 72473
new line.CTR17808 bus1=BMT120726351.1.2.3,bus2=BMT120726358.1.2.3,Phases=3,LineCode=tieSwitch,Length=0.001,Units=km,switch=T !numEQ 72474
new line.CTR178136 bus1=BMT120736270.3,bus2=BMT173879206.3,Phases=1,LineCode=tieSwitch1,Length=0.001,Units=km,switch=T !numEQ 143686
new line.CTR178304 bus1=BMT120692016.2,bus2=BMT120692723.2,Phases=1,LineCode=tieSwitch1,Length=0.001,Units=km,switch=T !numEQ 173326
new line.CTR178311 bus1=BMT120692009.2,bus2=BMT120692744.2,Phases=1,LineCode=tieSwitch1,Length=0.001,Units=km,switch=T !numEQ 173327
new line.CTR178346 bus1=BMT174061400.2,bus2=BMT174061401.2,Phases=1,LineCode=tieSwitch1,Length=0.001,Units=km,switch=T !numEQ 172773
new line.CTR178402 bus1=BMT120738811.1,bus2=BMT120739217.1,Phases=1,LineCode=tieSwitch1,Length=0.001,Units=km,switch=T !numEQ 73720
new line.CTR178416 bus1=BMT163857562.3,bus2=BMT163857563.3,Phases=1,LineCode=tieSwitch1,Length=0.001,Units=km,switch=T !numEQ 173323
new line.CTR178906 bus1=BMT120739889.2,bus2=BMT120740190.2,Phases=1,LineCode=tieSwitch1,Length=0.001,Units=km,switch=T !numEQ 201350
new line.CTR19544 bus1=BMT172525828.3,bus2=BMT172526020.3,Phases=1,LineCode=tieSwitch1,Length=0.001,Units=km,switch=T !numEQ 74252
new line.CTR19551 bus1=BMT120705428.1,bus2=BMT140003007.1,Phases=1,LineCode=tieSwitch1,Length=0.001,Units=km,switch=T !numEQ 74253
new line.CTR19558 bus1=BMT120705456.2,bus2=BMT120705470.2,Phases=1,LineCode=tieSwitch1,Length=0.001,Units=km,switch=T !numEQ 72603
new line.CTR19565 bus1=BMT120703566.1,bus2=BMT120704917.1,Phases=1,LineCode=tieSwitch1,Length=0.001,Units=km,switch=T !numEQ 74234
new line.CTR19579 bus1=BMT120719498.2,bus2=BMT172875681.2,Phases=1,LineCode=tieSwitch1,Length=0.001,Units=km,switch=T !numEQ 73025
new line.CTR195832 bus1=BMT120740862.3,bus2=BMT120740876.3,Phases=1,LineCode=tieSwitch1,Length=0.001,Units=km,switch=T !numEQ 222778
new line.CTR19600 bus1=BMT120720247.2,bus2=BMT172568910.2,Phases=1,LineCode=tieSwitch1,Length=0.001,Units=km,switch=T !numEQ 72996
new line.CTR19621 bus1=BMT120723194.1,bus2=BMT168220511.1,Phases=1,LineCode=tieSwitch1,Length=0.001,Units=km,switch=T !numEQ 73381
new line.CTR196322 bus1=BMT120740491.3,bus2=BMT120741086.3,Phases=1,LineCode=tieSwitch1,Length=0.001,Units=km,switch=T !numEQ 222777
new line.CTR19635 bus1=BMT120724727.1,bus2=BMT120724734.1,Phases=1,LineCode=tieSwitch1,Length=0.001,Units=km,switch=T !numEQ 73035
new line.CTR196413 bus1=BMT120726953.1,bus2=BMT120727688.1,Phases=1,LineCode=tieSwitch1,Length=0.001,Units=km,switch=T !numEQ 211970
new line.CTR19649 bus1=BMT120718224.3,bus2=BMT120718371.3,Phases=1,LineCode=tieSwitch1,Length=0.001,Units=km,switch=T !numEQ 73721
new line.CTR25550 bus1=BMT120702873.2,bus2=BMT171686967.2,Phases=1,LineCode=tieSwitch1,Length=0.001,Units=km,switch=T !numEQ 317676
new line.CTR28595 bus1=BMT120734331.2,bus2=BMT120734394.2,Phases=1,LineCode=tieSwitch1,Length=0.001,Units=km,switch=T !numEQ 201348
new line.CTR322244 bus1=BMT120702376.3,bus2=BMT176744109.3,Phases=1,LineCode=tieSwitch1,Length=0.001,Units=km,switch=T !numEQ 282122
new line.CTR32228 bus1=BMT120702698.1.2.3,bus2=BMT120702705.1.2.3,Phases=3,LineCode=tieSwitch,Length=0.001,Units=km,switch=T !numEQ 72527
new line.CTR322342 bus1=BMT120702082.3,bus2=BMT120702187.3,Phases=1,LineCode=tieSwitch1,Length=0.001,Units=km,switch=T !numEQ 282128
new line.CTR32291 bus1=BMT120713982.2,bus2=BMT120714052.2,Phases=1,LineCode=tieSwitch1,Length=0.001,Units=km,switch=T !numEQ 131995
new line.CTR323049 bus1=BMT120721269.2,bus2=BMT120721381.2,Phases=1,LineCode=tieSwitch1,Length=0.001,Units=km,switch=T !numEQ 226692
new line.CTR325415 bus1=BMT169642907.3,bus2=BMT169642919.3,Phases=1,LineCode=tieSwitch1,Length=0.001,Units=km,switch=T !numEQ 282187
new line.CTR325569 bus1=BMT120738867.1,bus2=BMT120739203.1,Phases=1,LineCode=tieSwitch1,Length=0.001,Units=km,switch=T !numEQ 222776
new line.CTR36449 bus1=BMT120723894.2,bus2=BMT120724174.2,Phases=1,LineCode=tieSwitch1,Length=0.001,Units=km,switch=T !numEQ 173962
new line.CTR366176 bus1=BMT120706443.1,bus2=BMT120706548.1,Phases=1,LineCode=tieSwitch1,Length=0.001,Units=km,switch=T !numEQ 223438
new line.CTR403458 bus1=BMT130415751.2,bus2=BMT172027026.2,Phases=1,LineCode=tieSwitch1,Length=0.001,Units=km,switch=T !numEQ 214246
new line.CTR403465 bus1=BMT130417214.2,bus2=BMT172308250.2,Phases=1,LineCode=tieSwitch1,Length=0.001,Units=km,switch=T !numEQ 214221
new line.CTR403486 bus1=BMT130418453.1,bus2=BMT131846355.1,Phases=1,LineCode=tieSwitch1,Length=0.001,Units=km,switch=T !numEQ 214224
new line.CTR403507 bus1=BMT130423493.2,bus2=BMT130423570.2,Phases=1,LineCode=tieSwitch1,Length=0.001,Units=km,switch=T !numEQ 214226
new line.CTR403563 bus1=BMT130475020.1,bus2=BMT173796247.1,Phases=1,LineCode=tieSwitch1,Length=0.001,Units=km,switch=T !numEQ 301867
new line.CTR19131 bus1=BMT120737971.2,bus2=BMT148252703.2,Phases=1,LineCode=tieSwitch1,Length=0.001,Units=km,switch=T !numEQ 72650
new line.CTR191324 bus1=BMT120722879.3,bus2=BMT167656261.3,Phases=1,LineCode=tieSwitch1,Length=0.001,Units=km,switch=T !numEQ 207183
new line.CTR19138 bus1=BMT120738006.2,bus2=BMT151825774.2,Phases=1,LineCode=tieSwitch1,Length=0.001,Units=km,switch=T !numEQ 72651
new line.CTR191387 bus1=BMT120722011.3,bus2=BMT120722039.3,Phases=1,LineCode=tieSwitch1,Length=0.001,Units=km,switch=T !numEQ 204802
new line.CTR191422 bus1=BMT120712946.2,bus2=BMT167762790.2,Phases=1,LineCode=tieSwitch1,Length=0.001,Units=km,switch=T !numEQ 201986
new line.CTR19145 bus1=BMT120731566.1.2.3,bus2=BMT171842086.1.2.3,Phases=3,LineCode=tieSwitch,Length=0.001,Units=km,switch=T !numEQ 72701
new line.CTR191513 bus1=BMT120739483.1,bus2=BMT120739609.1,Phases=1,LineCode=tieSwitch1,Length=0.001,Units=km,switch=T !numEQ 208426
new line.CTR19152 bus1=BMT120738440.1,bus2=BMT172459161.1,Phases=1,LineCode=tieSwitch1,Length=0.001,Units=km,switch=T !numEQ 15279
new line.CTR191541 bus1=BMT120708662.3,bus2=BMT165172266.3,Phases=1,LineCode=tieSwitch1,Length=0.001,Units=km,switch=T !numEQ 199935
new line.CTR19159 bus1=BMT120731748.2,bus2=BMT120733351.2,Phases=1,LineCode=tieSwitch1,Length=0.001,Units=km,switch=T !numEQ 73771
new line.CTR19166 bus1=BMT120731755.3,bus2=BMT120733267.3,Phases=1,LineCode=tieSwitch1,Length=0.001,Units=km,switch=T !numEQ 73773
new line.CTR19173 bus1=BMT120731839.1,bus2=BMT120733204.1,Phases=1,LineCode=tieSwitch1,Length=0.001,Units=km,switch=T !numEQ 73363
new line.CTR19187 bus1=BMT120732007.3,bus2=BMT159176607.3,Phases=1,LineCode=tieSwitch1,Length=0.001,Units=km,switch=T !numEQ 73366
new line.CTR19194 bus1=BMT120731965.1.2.3,bus2=BMT120731972.1.2.3,Phases=3,LineCode=tieSwitch,Length=0.001,Units=km,switch=T !numEQ 73337
new line.CTR19201 bus1=BMT171010404.2,bus2=BMT171010416.2,Phases=1,LineCode=tieSwitch1,Length=0.001,Units=km,switch=T !numEQ 73378
new line.CTR192017 bus1=BMT120737362.3,bus2=BMT120737474.3,Phases=1,LineCode=tieSwitch1,Length=0.001,Units=km,switch=T !numEQ 212798
new line.CTR192073 bus1=BMT120720471.2,bus2=BMT120720765.2,Phases=1,LineCode=tieSwitch1,Length=0.001,Units=km,switch=T !numEQ 207158
new line.CTR19208 bus1=BMT120732392.1,bus2=BMT120732476.1,Phases=1,LineCode=tieSwitch1,Length=0.001,Units=km,switch=T !numEQ 73377
new line.CTR19215 bus1=BMT120732091.2,bus2=BMT176250487.2,Phases=1,LineCode=tieSwitch1,Length=0.001,Units=km,switch=T !numEQ 73370
new line.CTR19222 bus1=BMT120731608.1.2.3,bus2=BMT163931160.1.2.3,Phases=3,LineCode=tieSwitch,Length=0.001,Units=km,switch=T !numEQ 91432
new line.CTR19236 bus1=BMT120731503.3,bus2=BMT120733498.3,Phases=1,LineCode=tieSwitch1,Length=0.001,Units=km,switch=T !numEQ 73082
new line.CTR192409 bus1=BMT120704175.1,bus2=BMT131846404.1,Phases=1,LineCode=tieSwitch1,Length=0.001,Units=km,switch=T !numEQ 203948
new line.CTR19243 bus1=BMT120734744.1,bus2=BMT120736571.1,Phases=1,LineCode=tieSwitch1,Length=0.001,Units=km,switch=T !numEQ 73400
new line.CTR19250 bus1=BMT120734807.3,bus2=BMT120736410.3,Phases=1,LineCode=tieSwitch1,Length=0.001,Units=km,switch=T !numEQ 73389
new line.CTR19257 bus1=BMT120734814.3,bus2=BMT120736382.3,Phases=1,LineCode=tieSwitch1,Length=0.001,Units=km,switch=T !numEQ 73390
new line.CTR192598 bus1=BMT120720604.2,bus2=BMT120720723.2,Phases=1,LineCode=tieSwitch1,Length=0.001,Units=km,switch=T !numEQ 207157
new line.CTR19264 bus1=BMT120734856.1,bus2=BMT120734891.1,Phases=1,LineCode=tieSwitch1,Length=0.001,Units=km,switch=T !numEQ 15280
new line.CTR21014 bus1=BMT120711644.2,bus2=BMT120711756.2,Phases=1,LineCode=tieSwitch1,Length=0.001,Units=km,switch=T !numEQ 73009
new line.CTR21021 bus1=BMT173591007.1.2.3,bus2=BMT120707682.1.2.3,Phases=3,LineCode=tieSwitch,Length=0.001,Units=km,switch=T !numEQ 85304
open line.CTR21021 term=1
new line.CTR21028 bus1=BMT120707654.1.2.3,bus2=BMT171207770.1.2.3,Phases=3,LineCode=tieSwitch,Length=0.001,Units=km,switch=T !numEQ 72513
new line.CTR21035 bus1=BMT140546249.1.2.3,bus2=BMT140546256.1.2.3,Phases=3,LineCode=tieSwitch,Length=0.001,Units=km,switch=T !numEQ 85301
open line.CTR21035 term=1
new line.CTR22988 bus1=BMT120689517.1.2.3,bus2=BMT149799133.1.2.3,Phases=3,LineCode=tieSwitch,Length=0.001,Units=km,switch=T !numEQ 91433
new line.CTR22995 bus1=BMT120689531.1.2.3,bus2=BMT170786566.1.2.3,Phases=3,LineCode=tieSwitch,Length=0.001,Units=km,switch=T !numEQ 91434
new line.CTR23002 bus1=BMT120689566.1,bus2=BMT176335326.1,Phases=1,LineCode=tieSwitch1,Length=0.001,Units=km,switch=T !numEQ 72536
new line.CTR23016 bus1=BMT120689657.1.2.3,bus2=BMT120701704.1.2.3,Phases=3,LineCode=tieSwitch,Length=0.001,Units=km,switch=T !numEQ 72543
new line.CTR23023 bus1=BMT120701718.2,bus2=BMT171469789.2,Phases=1,LineCode=tieSwitch1,Length=0.001,Units=km,switch=T !numEQ 280233
new line.CTR23107 bus1=BMT120702859.1.2.3,bus2=BMT120702929.1.2.3,Phases=3,LineCode=tieSwitch,Length=0.001,Units=km,switch=T !numEQ 116718
new line.CTR326640 bus1=BMT120711182.2,bus2=BMT120714325.2,Phases=1,LineCode=tieSwitch1,Length=0.001,Units=km,switch=T !numEQ 214219
new line.CTR357510 bus1=BMT122808865.2,bus2=BMT176526435.2,Phases=1,LineCode=tieSwitch1,Length=0.001,Units=km,switch=T !numEQ 287389
new line.CTR359008 bus1=BMT120731216.1.2.3,bus2=BMT174863282.1.2.3,Phases=3,LineCode=tieSwitch,Length=0.001,Units=km,switch=T !numEQ 228762
new line.CTR359029 bus1=BMT120731083.1.2.3,bus2=BMT120731188.1.2.3,Phases=3,LineCode=tieSwitch,Length=0.001,Units=km,switch=T !numEQ 228752
new line.CTR359092 bus1=BMT120739980.2,bus2=BMT174061384.2,Phases=1,LineCode=tieSwitch1,Length=0.001,Units=km,switch=T !numEQ 287422
new line.CTR359106 bus1=BMT120735171.2,bus2=BMT157431155.2,Phases=1,LineCode=tieSwitch1,Length=0.001,Units=km,switch=T !numEQ 287423
new line.CTR360135 bus1=BMT120695852.1.2.3,bus2=BMT170115038.1.2.3,Phases=3,LineCode=tieSwitch,Length=0.001,Units=km,switch=T !numEQ 221527
new line.CTR36120 bus1=BMT120695033.3,bus2=BMT141831204.3,Phases=1,LineCode=tieSwitch1,Length=0.001,Units=km,switch=T !numEQ 103814
new line.CTR40782 bus1=BMT120725105.1.2.3,bus2=BMT176693847.1.2.3,Phases=3,LineCode=tieSwitch,Length=0.001,Units=km,switch=T !numEQ 288433
new line.CTR407959 bus1=BMT132497796.1.2.3,bus2=BMT174874463.1.2.3,Phases=3,LineCode=tieSwitch,Length=0.001,Units=km,switch=T !numEQ 297972
new line.CTR46536 bus1=BMT120719449.1.2.3,bus2=BMT166964080.1.2.3,Phases=3,LineCode=tieSwitch,Length=0.001,Units=km,switch=T !numEQ 91466
new line.CTR112154 bus1=BMT120708354.1.2.3,bus2=BMT3071502.1.2.3,Phases=3,LineCode=tieSwitch,Length=0.001,Units=km,switch=T !numEQ 91340
new line.CTR11228 bus1=BMT120728059.1.2.3,bus2=BMT120728066.1.2.3,Phases=3,LineCode=tieSwitch,Length=0.001,Units=km,switch=T !numEQ 141103
new line.CTR113442 bus1=BMT120738678.1,bus2=BMT172637127.1,Phases=1,LineCode=tieSwitch1,Length=0.001,Units=km,switch=T !numEQ 72250
new line.CTR146377 bus1=BMT120710678.1.2.3,bus2=BMT162913184.1.2.3,Phases=3,LineCode=tieSwitch,Length=0.001,Units=km,switch=T !numEQ 91338
new line.CTR14644 bus1=BMT120718483.1.2.3,bus2=BMT120718630.1.2.3,Phases=3,LineCode=tieSwitch,Length=0.001,Units=km,switch=T !numEQ 115992
new line.CTR146811 bus1=BMT120696496.1,bus2=BMT159163000.1,Phases=1,LineCode=tieSwitch1,Length=0.001,Units=km,switch=T !numEQ 134782
new line.CTR146993 bus1=BMT120693199.3,bus2=BMT141737663.3,Phases=1,LineCode=tieSwitch1,Length=0.001,Units=km,switch=T !numEQ 103801
new line.CTR166551 bus1=BMT120727898.1.2.3,bus2=BMT120728234.1.2.3,Phases=3,LineCode=tieSwitch,Length=0.001,Units=km,switch=T !numEQ 16990
new line.CTR167027 bus1=BMT170408324.1.2.3,bus2=BMT120708473.1.2.3,Phases=3,LineCode=tieSwitch,Length=0.001,Units=km,switch=T !numEQ 173760
new line.CTR167447 bus1=BMT120708424.1.2.3,bus2=BMT170408321.1.2.3,Phases=3,LineCode=tieSwitch,Length=0.001,Units=km,switch=T !numEQ 213969
new line.CTR167454 bus1=BMT158916510.1.2.3,bus2=BMT158917349.1.2.3,Phases=3,LineCode=tieSwitch,Length=0.001,Units=km,switch=T !numEQ 171709
new line.CTR167496 bus1=BMT120730663.1.2.3,bus2=BMT120737852.1.2.3,Phases=3,LineCode=tieSwitch,Length=0.001,Units=km,switch=T !numEQ 72645
new line.CTR167517 bus1=BMT120731202.2,bus2=BMT160561517.2,Phases=1,LineCode=tieSwitch1,Length=0.001,Units=km,switch=T !numEQ 74269
new line.CTR167601 bus1=BMT120694018.3,bus2=BMT141833185.3,Phases=1,LineCode=tieSwitch1,Length=0.001,Units=km,switch=T !numEQ 72635
new line.CTR167748 bus1=BMT172594490.3,bus2=BMT172594542.3,Phases=1,LineCode=tieSwitch1,Length=0.001,Units=km,switch=T !numEQ 328515
...